@<TRIPOS>MOLECULE
3kwa_ligand_019
    44    43
SMALL
GAST_HUCK
****
This file was generated by PARSER (from files_GN.cpp)

@<TRIPOS>ATOM
      1 N1        -10.5231    9.4402    8.2812 N.4         1 SPM       0.2187
      2 C2         -9.9477    8.1096    8.5286 C.3         1 SPM      -0.0305
      3 C3         -8.5293    7.9972    7.9229 C.3         1 SPM       0.0275
      4 C4         -7.9075    6.5819    8.1197 C.3         1 SPM      -0.0288
      5 N5         -6.7582    6.2843    7.2248 N.4         1 SPM       0.2271
      6 C6         -5.6261    7.2406    7.2588 C.3         1 SPM      -0.0335
      7 C7         -4.4935    6.8491    6.2796 C.3         1 SPM      -0.0078
      8 C8         -3.7705    5.4952    6.5497 C.3         1 SPM      -0.0078
      9 C9         -3.2210    5.3126    7.9916 C.3         1 SPM      -0.0335
     10 N10        -1.8934    4.6565    7.9876 N.4         1 SPM       0.2271
     11 C11        -1.3482    4.1951    9.2847 C.3         1 SPM      -0.0288
     12 C12        -1.2871    5.2646   10.4122 C.3         1 SPM       0.0275
     13 C13        -0.3276    4.9083   11.5725 C.3         1 SPM      -0.0305
     14 N14        -0.6212    3.6120   12.1931 N.4         1 SPM       0.2187
     15 H1        -11.4461    9.4863    8.7191 H           1 SPM       0.1994
     16 H2        -10.6134    9.5960    7.2772 H           1 SPM       0.1994
     17 H3         -9.9204   10.1555    8.6880 H           1 SPM       0.1994
     18 H4        -10.6085    7.3688    8.0753 H           1 SPM       0.0815
     19 H5         -9.9081    7.9354    9.6006 H           1 SPM       0.0815
     20 H6         -7.8861    8.7383    8.4046 H           1 SPM       0.0369
     21 H7         -8.5779    8.2227    6.8624 H           1 SPM       0.0369
     22 H8         -8.6615    5.8223    7.9071 H           1 SPM       0.0816
     23 H9         -7.6002    6.4626    9.1555 H           1 SPM       0.0816
     24 H10        -7.1039    6.2224    6.2676 H           1 SPM       0.2013
     25 H11        -6.4038    5.3629    7.4990 H           1 SPM       0.2013
     26 H12        -5.2424    7.3238    8.2728 H           1 SPM       0.0814
     27 H13        -5.9826    8.2272    6.9503 H           1 SPM       0.0814
     28 H14        -3.7384    7.6435    6.3039 H           1 SPM       0.0319
     29 H15        -4.9037    6.8227    5.2720 H           1 SPM       0.0319
     30 H16        -2.9454    5.4293    5.8324 H           1 SPM       0.0319
     31 H17        -4.4545    4.6748    6.3157 H           1 SPM       0.0319
     32 H18        -3.9304    4.7216    8.5764 H           1 SPM       0.0814
     33 H19        -3.1090    6.2854    8.4753 H           1 SPM       0.0814
     34 H20        -1.2261    5.3187    7.5826 H           1 SPM       0.2013
     35 H21        -1.9428    3.8443    7.3672 H           1 SPM       0.2013
     36 H22        -0.3350    3.8403    9.0826 H           1 SPM       0.0816
     37 H23        -1.9377    3.3414    9.6257 H           1 SPM       0.0816
     38 H24        -2.2925    5.4066   10.8194 H           1 SPM       0.0369
     39 H25        -0.9631    6.2139    9.9819 H           1 SPM       0.0369
     40 H26        -0.3919    5.6788   12.3426 H           1 SPM       0.0815
     41 H27         0.7020    4.8866   11.2017 H           1 SPM       0.0815
     42 H28         0.0665    3.4265   12.9273 H           1 SPM       0.1994
     43 H29        -0.5731    2.8705   11.4930 H           1 SPM       0.1994
     44 H30        -1.5583    3.6317   12.6053 H           1 SPM       0.1994
@<TRIPOS>BOND
     1     1     2   1
     2     2     3   1
     3     3     4   1
     4     4     5   1
     5     5     6   1
     6     6     7   1
     7     7     8   1
     8     8     9   1
     9     9    10   1
    10    10    11   1
    11    11    12   1
    12    12    13   1
    13    13    14   1
    14     1    15   1
    15     1    16   1
    16     1    17   1
    17     2    18   1
    18     2    19   1
    19     3    20   1
    20     3    21   1
    21     4    22   1
    22     4    23   1
    23     5    24   1
    24     5    25   1
    25     6    26   1
    26     6    27   1
    27     7    28   1
    28     7    29   1
    29     8    30   1
    30     8    31   1
    31     9    32   1
    32     9    33   1
    33    10    34   1
    34    10    35   1
    35    11    36   1
    36    11    37   1
    37    12    38   1
    38    12    39   1
    39    13    40   1
    40    13    41   1
    41    14    42   1
    42    14    43   1
    43    14    44   1
@<TRIPOS>SUBSTRUCTURE
     1  SPM      2

