@<TRIPOS>MOLECULE
3kwa_ligand_007
    44    43
SMALL
GAST_HUCK
****
This file was generated by PARSER (from files_GN.cpp)

@<TRIPOS>ATOM
      1 N1          2.1139    6.0677   12.7685 N.4         1 SPM       0.2187
      2 C2          2.6347    5.6448   11.4600 C.3         1 SPM      -0.0305
      3 C3          1.5103    5.2882   10.4611 C.3         1 SPM       0.0275
      4 C4          0.8843    3.8637   10.5614 C.3         1 SPM      -0.0288
      5 N5          0.1330    3.4887   11.7848 N.4         1 SPM       0.2271
      6 C6         -0.9423    4.3689   12.3085 C.3         1 SPM      -0.0335
      7 C7         -1.9993    4.9201   11.3076 C.3         1 SPM      -0.0078
      8 C8         -2.9273    3.8705   10.6476 C.3         1 SPM      -0.0078
      9 C9         -3.9873    3.2284   11.5996 C.3         1 SPM      -0.0335
     10 N10        -3.5690    1.8835   12.0639 N.4         1 SPM       0.2271
     11 C11        -4.6785    0.9818   12.4705 C.3         1 SPM      -0.0288
     12 C12        -4.1552   -0.4402   12.7985 C.3         1 SPM       0.0275
     13 C13        -4.2244   -0.8823   14.2837 C.3         1 SPM      -0.0305
     14 N14        -3.9288    0.1529   15.2787 N.4         1 SPM       0.2187
     15 H1          2.8856    6.4079   13.3463 H           1 SPM       0.1994
     16 H2          1.6691    5.2734   13.2331 H           1 SPM       0.1994
     17 H3          1.4337    6.8194   12.6329 H           1 SPM       0.1994
     18 H4          3.3191    4.8051   11.5943 H           1 SPM       0.0815
     19 H5          3.2082    6.4863   11.0588 H           1 SPM       0.0815
     20 H6          1.9331    5.3724    9.4548 H           1 SPM       0.0369
     21 H7          0.7191    6.0362   10.5263 H           1 SPM       0.0369
     22 H8          1.6900    3.1316   10.4554 H           1 SPM       0.0816
     23 H9          0.2188    3.7283    9.7063 H           1 SPM       0.0816
     24 H10         0.8105    3.3687   12.5382 H           1 SPM       0.2013
     25 H11        -0.2884    2.5733   11.6024 H           1 SPM       0.2013
     26 H12        -0.4738    5.2238   12.7984 H           1 SPM       0.0814
     27 H13        -1.4650    3.8089   13.0852 H           1 SPM       0.0814
     28 H14        -1.4840    5.4736   10.5226 H           1 SPM       0.0319
     29 H15        -2.6231    5.6470   11.8356 H           1 SPM       0.0319
     30 H16        -2.3219    3.1004   10.1669 H           1 SPM       0.0319
     31 H17        -3.4651    4.3840    9.8423 H           1 SPM       0.0319
     32 H18        -4.9321    3.1698   11.0508 H           1 SPM       0.0814
     33 H19        -4.1668    3.8598   12.4737 H           1 SPM       0.0814
     34 H20        -2.9253    1.9867   12.8546 H           1 SPM       0.2013
     35 H21        -3.0664    1.4193   11.2985 H           1 SPM       0.2013
     36 H22        -5.3852    0.9130   11.6361 H           1 SPM       0.0816
     37 H23        -5.2156    1.4153   13.3188 H           1 SPM       0.0816
     38 H24        -3.1218   -0.5385   12.4552 H           1 SPM       0.0369
     39 H25        -4.7363   -1.1691   12.2211 H           1 SPM       0.0369
     40 H26        -3.5213   -1.7021   14.4346 H           1 SPM       0.0815
     41 H27        -5.2192   -1.2652   14.4992 H           1 SPM       0.0815
     42 H28        -3.7278   -0.3045   16.1703 H           1 SPM       0.1994
     43 H29        -4.7458    0.7627   15.3911 H           1 SPM       0.1994
     44 H30        -3.1256    0.7139   14.9904 H           1 SPM       0.1994
@<TRIPOS>BOND
     1     1     2   1
     2     2     3   1
     3     3     4   1
     4     4     5   1
     5     5     6   1
     6     6     7   1
     7     7     8   1
     8     8     9   1
     9     9    10   1
    10    10    11   1
    11    11    12   1
    12    12    13   1
    13    13    14   1
    14     1    15   1
    15     1    16   1
    16     1    17   1
    17     2    18   1
    18     2    19   1
    19     3    20   1
    20     3    21   1
    21     4    22   1
    22     4    23   1
    23     5    24   1
    24     5    25   1
    25     6    26   1
    26     6    27   1
    27     7    28   1
    28     7    29   1
    29     8    30   1
    30     8    31   1
    31     9    32   1
    32     9    33   1
    33    10    34   1
    34    10    35   1
    35    11    36   1
    36    11    37   1
    37    12    38   1
    38    12    39   1
    39    13    40   1
    40    13    41   1
    41    14    42   1
    42    14    43   1
    43    14    44   1
@<TRIPOS>SUBSTRUCTURE
     1  SPM      2

