@<TRIPOS>MOLECULE
3kwa_ligand_050
    44    43
SMALL
GAST_HUCK
****
This file was generated by PARSER (from files_GN.cpp)

@<TRIPOS>ATOM
      1 N1         -1.9086   10.9214   15.1086 N.4         1 SPM       0.2187
      2 C2         -1.1868    9.9243   15.9062 C.3         1 SPM      -0.0305
      3 C3         -1.6900    8.4867   15.6356 C.3         1 SPM       0.0275
      4 C4         -1.4614    7.9724   14.1787 C.3         1 SPM      -0.0288
      5 N5         -2.6705    7.9745   13.3198 N.4         1 SPM       0.2271
      6 C6         -3.6942    6.9408   13.6195 C.3         1 SPM      -0.0335
      7 C7         -4.9938    7.1797   12.8116 C.3         1 SPM      -0.0078
      8 C8         -4.9074    6.6816   11.3481 C.3         1 SPM      -0.0078
      9 C9         -6.0850    7.1905   10.4849 C.3         1 SPM      -0.0335
     10 N10        -6.0447    6.5580    9.1522 N.4         1 SPM       0.2271
     11 C11        -7.0079    7.0885    8.1523 C.3         1 SPM      -0.0288
     12 C12        -6.2864    7.5775    6.8697 C.3         1 SPM       0.0275
     13 C13        -5.4099    6.5124    6.1602 C.3         1 SPM      -0.0305
     14 N14        -6.0774    5.2081    6.0617 N.4         1 SPM       0.2187
     15 H1         -1.5054   11.8455   15.2749 H           1 SPM       0.1994
     16 H2         -2.8941   10.9297   15.3779 H           1 SPM       0.1994
     17 H3         -1.8294   10.6937   14.1159 H           1 SPM       0.1994
     18 H4         -1.3300   10.1638   16.9619 H           1 SPM       0.0815
     19 H5         -0.1206    9.9929   15.6830 H           1 SPM       0.0815
     20 H6         -2.7464    8.4494   15.9058 H           1 SPM       0.0369
     21 H7         -1.1618    7.8210   16.3232 H           1 SPM       0.0369
     22 H8         -1.0483    6.9604   14.2039 H           1 SPM       0.0816
     23 H9         -0.7151    8.5966   13.6820 H           1 SPM       0.0816
     24 H10        -2.3632    7.8312   12.3544 H           1 SPM       0.2013
     25 H11        -3.1022    8.8991   13.3770 H           1 SPM       0.2013
     26 H12        -3.9556    6.9591   14.6778 H           1 SPM       0.0814
     27 H13        -3.2904    5.9503   13.3945 H           1 SPM       0.0814
     28 H14        -5.2305    8.2458   12.8279 H           1 SPM       0.0319
     29 H15        -5.8169    6.6537   13.3039 H           1 SPM       0.0319
     30 H16        -4.9036    5.5883   11.3483 H           1 SPM       0.0319
     31 H17        -3.9745    7.0233   10.8934 H           1 SPM       0.0319
     32 H18        -5.9989    8.2755   10.3789 H           1 SPM       0.0814
     33 H19        -7.0395    6.9562   10.9639 H           1 SPM       0.0814
     34 H20        -6.2215    5.5552    9.2610 H           1 SPM       0.2013
     35 H21        -5.0968    6.6655    8.7868 H           1 SPM       0.2013
     36 H22        -7.6054    7.9160    8.5452 H           1 SPM       0.0816
     37 H23        -7.7099    6.2914    7.8945 H           1 SPM       0.0816
     38 H24        -5.6528    8.4316    7.1282 H           1 SPM       0.0369
     39 H25        -7.0449    7.9350    6.1676 H           1 SPM       0.0369
     40 H26        -4.4703    6.3787    6.6998 H           1 SPM       0.0815
     41 H27        -5.1723    6.8579    5.1517 H           1 SPM       0.0815
     42 H28        -5.4609    4.5315    5.6111 H           1 SPM       0.1994
     43 H29        -6.9310    5.3148    5.5128 H           1 SPM       0.1994
     44 H30        -6.3120    4.8736    6.9980 H           1 SPM       0.1994
@<TRIPOS>BOND
     1     1     2   1
     2     2     3   1
     3     3     4   1
     4     4     5   1
     5     5     6   1
     6     6     7   1
     7     7     8   1
     8     8     9   1
     9     9    10   1
    10    10    11   1
    11    11    12   1
    12    12    13   1
    13    13    14   1
    14     1    15   1
    15     1    16   1
    16     1    17   1
    17     2    18   1
    18     2    19   1
    19     3    20   1
    20     3    21   1
    21     4    22   1
    22     4    23   1
    23     5    24   1
    24     5    25   1
    25     6    26   1
    26     6    27   1
    27     7    28   1
    28     7    29   1
    29     8    30   1
    30     8    31   1
    31     9    32   1
    32     9    33   1
    33    10    34   1
    34    10    35   1
    35    11    36   1
    36    11    37   1
    37    12    38   1
    38    12    39   1
    39    13    40   1
    40    13    41   1
    41    14    42   1
    42    14    43   1
    43    14    44   1
@<TRIPOS>SUBSTRUCTURE
     1  SPM      2

