@<TRIPOS>MOLECULE
3l3n_ligand_027
    70    72
SMALL
GAST_HUCK
****
This file was generated by PARSER (from files_GN.cpp)

@<TRIPOS>ATOM
      1 C          45.0843    8.1645  109.6165 C.2         1 LSW       0.0847
      2 N          44.0072    9.9655  110.9325 N.4         1 LSW       0.2599
      3 O          45.5470    6.8942  109.5164 O.co2       1 LSW      -0.5643
      4 CA         44.0469    8.5010  110.6210 C.3         1 LSW       0.0340
      5 CB         42.6932    7.7675  110.3504 C.3         1 LSW       0.0122
      6 NAA        45.3197   16.6022  110.5901 N.4         1 LSW       0.2185
      7 OAC        42.9528   12.1942  104.9093 O.co2       1 LSW      -0.5665
      8 OAD        44.0117   10.8495  108.3077 O.2         1 LSW      -0.3908
      9 OAF        43.5241   13.2687  106.8927 O.co2       1 LSW      -0.5665
     10 CAG        40.9097    4.0139  107.3819 C.ar        1 LSW      -0.0687
     11 CAH        40.1106    4.6699  108.3367 C.ar        1 LSW      -0.0686
     12 CAI        42.0789    4.6266  106.9063 C.ar        1 LSW      -0.0686
     13 CAJ        37.0483    8.0641  106.1340 C.ar        1 LSW      -0.0768
     14 CAK        37.6934    8.5019  107.3112 C.ar        1 LSW      -0.0792
     15 CAL        40.4880    5.9366  108.8193 C.ar        1 LSW      -0.0603
     16 CAM        42.4556    5.8970  107.3862 C.ar        1 LSW      -0.0603
     17 CAN        37.2202    8.7665  104.9211 C.ar        1 LSW      -0.0443
     18 CAO        38.5165    9.6469  107.2920 C.ar        1 LSW      -0.0747
     19 CAP        39.1807   11.6902  104.3751 C.2         1 LSW       0.0166
     20 CAQ        45.5492   15.3604  111.3491 C.3         1 LSW      -0.0354
     21 CAR        44.2462   14.5325  111.4942 C.3         1 LSW      -0.0123
     22 CAS        44.2550   13.1823  110.7248 C.3         1 LSW      -0.0410
     23 CAT        42.0909    7.8809  108.9119 C.3         1 LSW      -0.0125
     24 CAU        43.0778   12.2544  111.1561 C.3         1 LSW       0.0081
     25 CAW        40.2586   12.3047  106.6335 C.3         1 LSW      -0.0013
     26 NAX        41.8875   11.5465  108.3471 N.am        1 LSW      -0.2657
     27 CBB        42.7489   12.3750  106.2387 C.2         1 LSW       0.0613
     28 CBC        42.9890   11.0984  108.9429 C.2         1 LSW       0.2263
     29 CBD        41.6652    6.5722  108.3507 C.ar        1 LSW      -0.0427
     30 CBE        39.4127   11.4830  105.7370 C.2         1 LSW      -0.0424
     31 CBF        38.0456    9.9045  104.9128 C.ar        1 LSW       0.0603
     32 CBG        38.6855   10.3400  106.0765 C.ar        1 LSW      -0.0214
     33 CBI        42.9737   10.8926  110.3952 C.3         1 LSW       0.0683
     34 CBJ        41.6537   11.6472  106.9321 C.3         1 LSW       0.0987
     35 OXT        45.5865    9.1087  108.7817 O.co2       1 LSW      -0.5643
     36 NXZ        38.3675   10.7316  103.9088 N.pl3       1 LSW      -0.2891
     37 H1         44.9217   10.3574  110.6959 H           1 LSW       0.2052
     38 H2         43.9338   10.0150  111.9540 H           1 LSW       0.2052
     39 H3         44.4290    8.0625  111.5469 H           1 LSW       0.1027
     40 H4         41.9566    8.1441  111.0686 H           1 LSW       0.0361
     41 H5         42.8443    6.7096  110.5980 H           1 LSW       0.0361
     42 H6         46.1971   17.1295  110.5195 H           1 LSW       0.1994
     43 H7         44.6266   17.1635  111.0976 H           1 LSW       0.1994
     44 H8         44.9724   16.3800  109.6500 H           1 LSW       0.1994
     45 H9         40.6373    3.0910  107.0331 H           1 LSW       0.0559
     46 H10        39.2606    4.2189  108.6858 H           1 LSW       0.0599
     47 H11        42.6611    4.1454  106.2146 H           1 LSW       0.0599
     48 H12        36.4501    7.2327  106.1575 H           1 LSW       0.0530
     49 H13        37.5588    7.9895  108.1825 H           1 LSW       0.0510
     50 H14        39.9047    6.3978  109.5215 H           1 LSW       0.0557
     51 H15        43.3224    6.3169  107.0431 H           1 LSW       0.0557
     52 H16        36.7498    8.4594  104.0668 H           1 LSW       0.0541
     53 H17        38.9768    9.9695  108.1427 H           1 LSW       0.0540
     54 H18        39.5766   12.4485  103.8099 H           1 LSW       0.0795
     55 H19        45.9094   15.6541  112.3397 H           1 LSW       0.0813
     56 H20        46.3358   14.7775  110.8601 H           1 LSW       0.0813
     57 H21        43.3992   15.1424  111.1610 H           1 LSW       0.0317
     58 H22        44.0968   14.3242  112.5573 H           1 LSW       0.0317
     59 H23        45.2108   12.6847  110.9135 H           1 LSW       0.0270
     60 H24        44.1881   13.3810  109.6500 H           1 LSW       0.0270
     61 H25        42.8075    8.3353  108.2288 H           1 LSW       0.0429
     62 H26        41.2237    8.5493  108.9264 H           1 LSW       0.0429
     63 H27        42.1439   12.8097  111.0266 H           1 LSW       0.0346
     64 H28        43.1759   12.0363  112.2231 H           1 LSW       0.0346
     65 H29        39.6961   12.4605  107.5600 H           1 LSW       0.0390
     66 H30        40.3812   13.2970  106.1932 H           1 LSW       0.0390
     67 H31        41.1385   11.7512  108.9345 H           1 LSW       0.1878
     68 H32        41.9992   10.4598  110.6593 H           1 LSW       0.1099
     69 H33        41.6568   10.6188  106.5549 H           1 LSW       0.0741
     70 H34        38.0588   10.6492  102.9960 H           1 LSW       0.2216
@<TRIPOS>BOND
     1     1     3  ar
     2     4     1   1
     3     1    35  ar
     4     2     4   1
     5    33     2   1
     6     4     5   1
     7     5    23   1
     8    20     6   1
     9    27     7  ar
    10    28     8   2
    11    27     9  ar
    12    11    10  ar
    13    12    10  ar
    14    15    11  ar
    15    16    12  ar
    16    14    13  ar
    17    13    17  ar
    18    18    14  ar
    19    29    15  ar
    20    29    16  ar
    21    17    31  ar
    22    32    18  ar
    23    30    19   2
    24    19    36   1
    25    21    20   1
    26    22    21   1
    27    24    22   1
    28    23    29   1
    29    33    24   1
    30    30    25   1
    31    25    34   1
    32    26    28  am
    33    34    26   1
    34    34    27   1
    35    28    33   1
    36    30    32   1
    37    31    32  ar
    38    31    36   1
    39     2    37   1
    40     2    38   1
    41     4    39   1
    42     5    40   1
    43     5    41   1
    44     6    42   1
    45     6    43   1
    46     6    44   1
    47    10    45   1
    48    11    46   1
    49    12    47   1
    50    13    48   1
    51    14    49   1
    52    15    50   1
    53    16    51   1
    54    17    52   1
    55    18    53   1
    56    19    54   1
    57    20    55   1
    58    20    56   1
    59    21    57   1
    60    21    58   1
    61    22    59   1
    62    22    60   1
    63    23    61   1
    64    23    62   1
    65    24    63   1
    66    24    64   1
    67    25    65   1
    68    25    66   1
    69    26    67   1
    70    33    68   1
    71    34    69   1
    72    36    70   1
@<TRIPOS>SUBSTRUCTURE
     1  LSW      1

