@<TRIPOS>MOLECULE
3l3n_ligand_072
    70    72
SMALL
GAST_HUCK
****
This file was generated by PARSER (from files_GN.cpp)

@<TRIPOS>ATOM
      1 C          41.7983   10.4893  108.2022 C.2         1 LSW       0.0847
      2 N          41.9920   12.3363  109.8218 N.4         1 LSW       0.2599
      3 O          40.6854    9.7390  108.0444 O.co2       1 LSW      -0.5643
      4 CA         41.6781   11.9483  108.4168 C.3         1 LSW       0.0340
      5 CB         42.3841   12.8157  107.3201 C.3         1 LSW       0.0122
      6 NAA        41.5806    9.9009  113.8350 N.4         1 LSW       0.2185
      7 OAC        45.5311    7.0483  109.5779 O.co2       1 LSW      -0.5665
      8 OAD        45.3528   11.1961  110.3307 O.2         1 LSW      -0.3908
      9 OAF        45.5700    9.2166  108.8169 O.co2       1 LSW      -0.5665
     10 CAG        37.7119   11.3556  105.5738 C.ar        1 LSW      -0.0687
     11 CAH        38.7743   10.6680  104.9611 C.ar        1 LSW      -0.0686
     12 CAI        37.9625   12.5396  106.2907 C.ar        1 LSW      -0.0686
     13 CAJ        39.9899    6.4613  107.0872 C.ar        1 LSW      -0.0768
     14 CAK        41.3842    6.2549  107.1405 C.ar        1 LSW      -0.0792
     15 CAL        40.0838   11.1703  105.0596 C.ar        1 LSW      -0.0603
     16 CAM        39.2765   13.0427  106.3851 C.ar        1 LSW      -0.0603
     17 CAN        39.2984    6.9689  108.2018 C.ar        1 LSW      -0.0443
     18 CAO        42.1134    6.5634  108.3145 C.ar        1 LSW      -0.0747
     19 CAP        40.6588    7.9735  111.3194 C.2         1 LSW       0.0166
     20 CAQ        40.7229   10.8387  113.0850 C.3         1 LSW      -0.0354
     21 CAR        41.2754   12.2864  112.9987 C.3         1 LSW      -0.0123
     22 CAS        42.8298   12.4107  112.9395 C.3         1 LSW      -0.0410
     23 CAT        41.7494   12.8707  105.8982 C.3         1 LSW      -0.0125
     24 CAU        43.4203   13.1590  111.7087 C.3         1 LSW       0.0081
     25 CAW        43.1826    7.6093  111.2962 C.3         1 LSW      -0.0013
     26 NAX        43.5364    9.9768  110.6455 N.am        1 LSW      -0.2657
     27 CBB        44.9601    8.2815  109.5882 C.2         1 LSW       0.0613
     28 CBC        44.1266   11.1448  110.4052 C.2         1 LSW       0.2263
     29 CBD        40.3548   12.3612  105.7780 C.ar        1 LSW      -0.0427
     30 CBE        41.8326    7.5698  110.6720 C.2         1 LSW      -0.0424
     31 CBF        40.0382    7.3002  109.3460 C.ar        1 LSW       0.0603
     32 CBG        41.4247    7.1164  109.4155 C.ar        1 LSW      -0.0214
     33 CBI        43.3937   12.4077  110.3374 C.3         1 LSW       0.0683
     34 CBJ        44.1907    8.7004  110.7902 C.3         1 LSW       0.0987
     35 OXT        42.9965    9.9202  107.9192 O.co2       1 LSW      -0.5643
     36 NXZ        39.6132    7.8362  110.4924 N.pl3       1 LSW      -0.2891
     37 H1         41.4618   11.7124  110.4284 H           1 LSW       0.2052
     38 H2         41.5957   13.2707  109.9348 H           1 LSW       0.2052
     39 H3         40.6110   12.1868  108.3330 H           1 LSW       0.1027
     40 H4         43.4076   12.4543  107.1844 H           1 LSW       0.0361
     41 H5         42.4573   13.8337  107.7089 H           1 LSW       0.0361
     42 H6         41.0151    9.1156  114.1713 H           1 LSW       0.1994
     43 H7         42.0131   10.3535  114.6378 H           1 LSW       0.1994
     44 H8         42.3193    9.5503  113.2256 H           1 LSW       0.1994
     45 H9         36.7587   10.9912  105.5032 H           1 LSW       0.0559
     46 H10        38.5964    9.7983  104.4492 H           1 LSW       0.0599
     47 H11        37.1928   13.0326  106.7497 H           1 LSW       0.0599
     48 H12        39.4717    6.2467  106.2337 H           1 LSW       0.0530
     49 H13        41.8784    5.8843  106.3285 H           1 LSW       0.0510
     50 H14        40.8463   10.6374  104.6318 H           1 LSW       0.0557
     51 H15        39.4423   13.8928  106.9276 H           1 LSW       0.0557
     52 H16        38.2868    7.1164  108.1755 H           1 LSW       0.0541
     53 H17        43.1133    6.3986  108.3509 H           1 LSW       0.0540
     54 H18        40.5928    8.3362  112.2765 H           1 LSW       0.0795
     55 H19        39.7507   10.8613  113.5856 H           1 LSW       0.0813
     56 H20        40.5770   10.4407  112.0779 H           1 LSW       0.0813
     57 H21        40.9123   12.8338  113.8748 H           1 LSW       0.0317
     58 H22        40.8164   12.7686  112.1268 H           1 LSW       0.0317
     59 H23        43.2955   11.4277  113.0059 H           1 LSW       0.0270
     60 H24        43.1559   12.9601  113.8293 H           1 LSW       0.0270
     61 H25        42.4035   12.3222  105.2110 H           1 LSW       0.0429
     62 H26        41.7605   13.9126  105.5512 H           1 LSW       0.0429
     63 H27        44.4665   13.3880  111.9340 H           1 LSW       0.0346
     64 H28        42.9145   14.1246  111.5969 H           1 LSW       0.0346
     65 H29        43.6259    6.6163  111.2077 H           1 LSW       0.0390
     66 H30        43.0486    7.7741  112.3718 H           1 LSW       0.0390
     67 H31        42.5719    9.9894  110.7482 H           1 LSW       0.1878
     68 H32        43.9441   13.0606  109.6603 H           1 LSW       0.1099
     69 H33        44.9315    8.8084  111.5957 H           1 LSW       0.0741
     70 H34        38.6984    8.0815  110.7014 H           1 LSW       0.2216
@<TRIPOS>BOND
     1     1     3  ar
     2     4     1   1
     3     1    35  ar
     4     2     4   1
     5    33     2   1
     6     4     5   1
     7     5    23   1
     8    20     6   1
     9    27     7  ar
    10    28     8   2
    11    27     9  ar
    12    11    10  ar
    13    12    10  ar
    14    15    11  ar
    15    16    12  ar
    16    14    13  ar
    17    13    17  ar
    18    18    14  ar
    19    29    15  ar
    20    29    16  ar
    21    17    31  ar
    22    32    18  ar
    23    30    19   2
    24    19    36   1
    25    21    20   1
    26    22    21   1
    27    24    22   1
    28    23    29   1
    29    33    24   1
    30    30    25   1
    31    25    34   1
    32    26    28  am
    33    34    26   1
    34    34    27   1
    35    28    33   1
    36    30    32   1
    37    31    32  ar
    38    31    36   1
    39     2    37   1
    40     2    38   1
    41     4    39   1
    42     5    40   1
    43     5    41   1
    44     6    42   1
    45     6    43   1
    46     6    44   1
    47    10    45   1
    48    11    46   1
    49    12    47   1
    50    13    48   1
    51    14    49   1
    52    15    50   1
    53    16    51   1
    54    17    52   1
    55    18    53   1
    56    19    54   1
    57    20    55   1
    58    20    56   1
    59    21    57   1
    60    21    58   1
    61    22    59   1
    62    22    60   1
    63    23    61   1
    64    23    62   1
    65    24    63   1
    66    24    64   1
    67    25    65   1
    68    25    66   1
    69    26    67   1
    70    33    68   1
    71    34    69   1
    72    36    70   1
@<TRIPOS>SUBSTRUCTURE
     1  LSW      1

