@<TRIPOS>MOLECULE
3l3n_ligand_085
    70    72
SMALL
GAST_HUCK
****
This file was generated by PARSER (from files_GN.cpp)

@<TRIPOS>ATOM
      1 C          42.3387   11.7483  106.6817 C.2         1 LSW       0.0847
      2 N          41.4727   13.9977  106.2442 N.4         1 LSW       0.2599
      3 O          42.5299   10.9601  105.5959 O.co2       1 LSW      -0.5643
      4 CA         41.1533   12.6349  106.7762 C.3         1 LSW       0.0340
      5 CB         39.9505   12.0871  105.9495 C.3         1 LSW       0.0122
      6 NAA        43.9190   19.9777  104.0844 N.4         1 LSW       0.2185
      7 OAC        39.3233   14.4299  110.8750 O.co2       1 LSW      -0.5665
      8 OAD        41.6082   14.5674  109.3479 O.2         1 LSW      -0.3908
      9 OAF        37.6819   14.8047  109.2599 O.co2       1 LSW      -0.5665
     10 CAG        38.4460    8.4711  102.7484 C.ar        1 LSW      -0.0687
     11 CAH        39.7808    8.5693  103.1769 C.ar        1 LSW      -0.0686
     12 CAI        37.4221    9.0686  103.5026 C.ar        1 LSW      -0.0686
     13 CAJ        38.4322   21.5194  105.4916 C.ar        1 LSW      -0.0768
     14 CAK        37.4587   20.5160  105.6824 C.ar        1 LSW      -0.0792
     15 CAL        40.0882    9.2538  104.3688 C.ar        1 LSW      -0.0603
     16 CAM        37.7295    9.7562  104.6928 C.ar        1 LSW      -0.0603
     17 CAN        39.5678   21.5795  106.3252 C.ar        1 LSW      -0.0443
     18 CAO        37.6157   19.5496  106.6988 C.ar        1 LSW      -0.0747
     19 CAP        40.3719   19.4228  109.0456 C.2         1 LSW       0.0166
     20 CAQ        43.0922   18.9147  104.6689 C.3         1 LSW      -0.0354
     21 CAR        43.4448   18.6802  106.1672 C.3         1 LSW      -0.0123
     22 CAS        43.4784   17.2005  106.6411 C.3         1 LSW      -0.0410
     23 CAT        39.4271   10.6664  106.3444 C.3         1 LSW      -0.0125
     24 CAU        42.2013   16.3739  106.3139 C.3         1 LSW       0.0081
     25 CAW        38.5317   17.6249  109.1858 C.3         1 LSW      -0.0013
     26 NAX        40.3122   16.0814  108.3330 N.am        1 LSW      -0.2657
     27 CBB        38.7898   15.2242  109.9208 C.2         1 LSW       0.0613
     28 CBC        41.3307   15.2420  108.3429 C.2         1 LSW       0.2263
     29 CBD        39.0669    9.8599  105.1403 C.ar        1 LSW      -0.0427
     30 CBE        39.1888   18.8240  108.5960 C.2         1 LSW      -0.0424
     31 CBF        39.7028   20.6211  107.3420 C.ar        1 LSW       0.0603
     32 CBG        38.7569   19.6075  107.5262 C.ar        1 LSW      -0.0214
     33 CBI        42.0946   15.0324  107.1182 C.3         1 LSW       0.0683
     34 CBJ        39.5042   16.4390  109.4760 C.3         1 LSW       0.0987
     35 OXT        43.3586   11.8670  107.5611 O.co2       1 LSW      -0.5643
     36 NXZ        40.6591   20.4825  108.2700 N.pl3       1 LSW      -0.2891
     37 H1         40.6061   14.3935  105.8738 H           1 LSW       0.2052
     38 H2         42.1107   13.8631  105.4554 H           1 LSW       0.2052
     39 H3         40.8398   12.7140  107.8222 H           1 LSW       0.1027
     40 H4         40.2461   12.0908  104.8931 H           1 LSW       0.0361
     41 H5         39.1136   12.7898  106.0441 H           1 LSW       0.0361
     42 H6         43.5871   20.1848  103.1374 H           1 LSW       0.1994
     43 H7         44.8922   19.6598  104.0395 H           1 LSW       0.1994
     44 H8         43.8614   20.8262  104.6537 H           1 LSW       0.1994
     45 H9         38.2278    7.9860  101.8755 H           1 LSW       0.0559
     46 H10        40.5293    8.1488  102.6217 H           1 LSW       0.0599
     47 H11        36.4562    9.0085  103.1832 H           1 LSW       0.0599
     48 H12        38.3124   22.2121  104.7485 H           1 LSW       0.0530
     49 H13        36.6315   20.4877  105.0817 H           1 LSW       0.0510
     50 H14        41.0698    9.3330  104.6572 H           1 LSW       0.0557
     51 H15        36.9767   10.2043  105.2161 H           1 LSW       0.0557
     52 H16        40.2730   22.3101  106.2030 H           1 LSW       0.0541
     53 H17        36.8996   18.8369  106.8431 H           1 LSW       0.0540
     54 H18        40.9474   19.1057  109.8272 H           1 LSW       0.0795
     55 H19        43.2579   18.0035  104.0896 H           1 LSW       0.0813
     56 H20        42.0396   19.1995  104.5774 H           1 LSW       0.0813
     57 H21        42.7261   19.2330  106.7765 H           1 LSW       0.0317
     58 H22        44.4352   19.0965  106.3699 H           1 LSW       0.0317
     59 H23        43.6299   17.1978  107.7294 H           1 LSW       0.0270
     60 H24        44.3413   16.7008  106.1798 H           1 LSW       0.0270
     61 H25        38.5618   10.7722  107.0092 H           1 LSW       0.0429
     62 H26        40.1829   10.1213  106.9193 H           1 LSW       0.0429
     63 H27        42.2186   16.1391  105.2455 H           1 LSW       0.0346
     64 H28        41.3008   16.9772  106.4951 H           1 LSW       0.0346
     65 H29        37.7243   17.2948  108.5258 H           1 LSW       0.0390
     66 H30        38.0712   17.9406  110.1296 H           1 LSW       0.0390
     67 H31        40.1456   16.5687  107.5008 H           1 LSW       0.1878
     68 H32        43.1044   14.6798  107.3601 H           1 LSW       0.1099
     69 H33        40.1614   16.7687  110.2910 H           1 LSW       0.0741
     70 H34        41.4225   21.0697  108.3754 H           1 LSW       0.2216
@<TRIPOS>BOND
     1     1     3  ar
     2     4     1   1
     3     1    35  ar
     4     2     4   1
     5    33     2   1
     6     4     5   1
     7     5    23   1
     8    20     6   1
     9    27     7  ar
    10    28     8   2
    11    27     9  ar
    12    11    10  ar
    13    12    10  ar
    14    15    11  ar
    15    16    12  ar
    16    14    13  ar
    17    13    17  ar
    18    18    14  ar
    19    29    15  ar
    20    29    16  ar
    21    17    31  ar
    22    32    18  ar
    23    30    19   2
    24    19    36   1
    25    21    20   1
    26    22    21   1
    27    24    22   1
    28    23    29   1
    29    33    24   1
    30    30    25   1
    31    25    34   1
    32    26    28  am
    33    34    26   1
    34    34    27   1
    35    28    33   1
    36    30    32   1
    37    31    32  ar
    38    31    36   1
    39     2    37   1
    40     2    38   1
    41     4    39   1
    42     5    40   1
    43     5    41   1
    44     6    42   1
    45     6    43   1
    46     6    44   1
    47    10    45   1
    48    11    46   1
    49    12    47   1
    50    13    48   1
    51    14    49   1
    52    15    50   1
    53    16    51   1
    54    17    52   1
    55    18    53   1
    56    19    54   1
    57    20    55   1
    58    20    56   1
    59    21    57   1
    60    21    58   1
    61    22    59   1
    62    22    60   1
    63    23    61   1
    64    23    62   1
    65    24    63   1
    66    24    64   1
    67    25    65   1
    68    25    66   1
    69    26    67   1
    70    33    68   1
    71    34    69   1
    72    36    70   1
@<TRIPOS>SUBSTRUCTURE
     1  LSW      1

