@<TRIPOS>MOLECULE
3l3n_ligand_094
    70    72
SMALL
GAST_HUCK
****
This file was generated by PARSER (from files_GN.cpp)

@<TRIPOS>ATOM
      1 C          42.4834   17.4335  109.8445 C.2         1 LSW       0.0847
      2 N          43.7564   15.3600  110.2682 N.4         1 LSW       0.2599
      3 O          42.6081   18.6810  110.3552 O.co2       1 LSW      -0.5643
      4 CA         43.6913   16.6338  109.5090 C.3         1 LSW       0.0340
      5 CB         44.0329   16.4965  107.9914 C.3         1 LSW       0.0122
      6 NAA        41.2713   13.6632  106.3247 N.4         1 LSW       0.2185
      7 OAC        41.3264   10.7817  113.4973 O.co2       1 LSW      -0.5665
      8 OAD        43.4735   12.8552  111.7402 O.2         1 LSW      -0.3908
      9 OAF        40.1061   11.2652  111.5918 O.co2       1 LSW      -0.5665
     10 CAG        42.7304   19.9065  104.3948 C.ar        1 LSW      -0.0687
     11 CAH        43.9198   19.1768  104.5533 C.ar        1 LSW      -0.0686
     12 CAI        41.5653   19.5191  105.0817 C.ar        1 LSW      -0.0686
     13 CAJ        40.2077   19.2016  112.6572 C.ar        1 LSW      -0.0768
     14 CAK        39.8682   18.2573  111.6643 C.ar        1 LSW      -0.0792
     15 CAL        43.9362   18.0470  105.3894 C.ar        1 LSW      -0.0603
     16 CAM        41.5879   18.3983  105.9307 C.ar        1 LSW      -0.0603
     17 CAN        40.4663   18.7840  113.9813 C.ar        1 LSW      -0.0443
     18 CAO        39.7736   16.8848  111.9835 C.ar        1 LSW      -0.0747
     19 CAP        40.3136   15.4683  115.2833 C.2         1 LSW       0.0166
     20 CAQ        41.1535   12.2267  106.5955 C.3         1 LSW      -0.0354
     21 CAR        42.4831   11.6045  107.0925 C.3         1 LSW      -0.0123
     22 CAS        42.8084   11.8669  108.5949 C.3         1 LSW      -0.0410
     23 CAT        42.8443   16.4585  106.9761 C.3         1 LSW      -0.0125
     24 CAU        43.6157   13.1727  108.9113 C.3         1 LSW       0.0081
     25 CAW        39.6522   13.8979  113.3792 C.3         1 LSW      -0.0013
     26 NAX        41.4270   13.7259  111.7265 N.am        1 LSW      -0.2657
     27 CBB        40.7155   11.7012  112.7187 C.2         1 LSW       0.0613
     28 CBC        42.6174   13.5303  111.1773 C.2         1 LSW       0.2263
     29 CBD        42.7770   17.6480  106.0933 C.ar        1 LSW      -0.0427
     30 CBE        39.9561   15.2322  113.9525 C.2         1 LSW      -0.0424
     31 CBF        40.3394   17.4185  114.2915 C.ar        1 LSW       0.0603
     32 CBG        39.9876   16.4778  113.3176 C.ar        1 LSW      -0.0214
     33 CBI        42.9351   14.1675  109.9097 C.3         1 LSW       0.0683
     34 CBJ        40.9406   13.1459  112.9379 C.3         1 LSW       0.0987
     35 OXT        41.2177   16.9860  109.6957 O.co2       1 LSW      -0.5643
     36 NXZ        40.5343   16.7820  115.4570 N.pl3       1 LSW      -0.2891
     37 H1         43.4996   15.6316  111.2241 H           1 LSW       0.2052
     38 H2         44.7337   15.0610  110.2999 H           1 LSW       0.2052
     39 H3         44.5347   17.1935  109.9249 H           1 LSW       0.1027
     40 H4         44.6146   15.5740  107.8581 H           1 LSW       0.0361
     41 H5         44.7109   17.3134  107.7203 H           1 LSW       0.0361
     42 H6         40.3936   14.0299  105.9458 H           1 LSW       0.1994
     43 H7         42.0208   13.8206  105.6476 H           1 LSW       0.1994
     44 H8         41.4859   14.1522  107.1953 H           1 LSW       0.1994
     45 H9         42.7160   20.7109  103.7732 H           1 LSW       0.0559
     46 H10        44.7674   19.4598  104.0561 H           1 LSW       0.0599
     47 H11        40.6996   20.0551  104.9603 H           1 LSW       0.0599
     48 H12        40.2865   20.1905  112.4148 H           1 LSW       0.0530
     49 H13        39.6911   18.5667  110.7048 H           1 LSW       0.0510
     50 H14        44.7995   17.5086  105.4800 H           1 LSW       0.0557
     51 H15        40.7309   18.1306  106.4258 H           1 LSW       0.0557
     52 H16        40.7306   19.4613  114.6998 H           1 LSW       0.0541
     53 H17        39.5589   16.2030  111.2563 H           1 LSW       0.0540
     54 H18        40.4077   14.7577  116.0103 H           1 LSW       0.0795
     55 H19        40.8550   11.7369  105.6656 H           1 LSW       0.0813
     56 H20        40.3664   12.0732  107.3350 H           1 LSW       0.0813
     57 H21        43.3033   11.9607  106.4635 H           1 LSW       0.0317
     58 H22        42.4006   10.5252  106.9436 H           1 LSW       0.0317
     59 H23        43.3992   11.0170  108.9562 H           1 LSW       0.0270
     60 H24        41.8660   11.8451  109.1521 H           1 LSW       0.0270
     61 H25        41.9014   16.3149  107.5063 H           1 LSW       0.0429
     62 H26        42.9495   15.5871  106.3316 H           1 LSW       0.0429
     63 H27        43.8153   13.7053  107.9825 H           1 LSW       0.0346
     64 H28        44.5937   12.8878  109.3124 H           1 LSW       0.0346
     65 H29        38.9768   14.0138  112.5258 H           1 LSW       0.0390
     66 H30        39.1131   13.3182  114.1308 H           1 LSW       0.0390
     67 H31        40.8201   14.3195  111.2539 H           1 LSW       0.1878
     68 H32        42.0080   14.4976  109.4394 H           1 LSW       0.1099
     69 H33        41.6941   13.2641  113.7245 H           1 LSW       0.0741
     70 H34        40.8152   17.2056  116.2825 H           1 LSW       0.2216
@<TRIPOS>BOND
     1     1     3  ar
     2     4     1   1
     3     1    35  ar
     4     2     4   1
     5    33     2   1
     6     4     5   1
     7     5    23   1
     8    20     6   1
     9    27     7  ar
    10    28     8   2
    11    27     9  ar
    12    11    10  ar
    13    12    10  ar
    14    15    11  ar
    15    16    12  ar
    16    14    13  ar
    17    13    17  ar
    18    18    14  ar
    19    29    15  ar
    20    29    16  ar
    21    17    31  ar
    22    32    18  ar
    23    30    19   2
    24    19    36   1
    25    21    20   1
    26    22    21   1
    27    24    22   1
    28    23    29   1
    29    33    24   1
    30    30    25   1
    31    25    34   1
    32    26    28  am
    33    34    26   1
    34    34    27   1
    35    28    33   1
    36    30    32   1
    37    31    32  ar
    38    31    36   1
    39     2    37   1
    40     2    38   1
    41     4    39   1
    42     5    40   1
    43     5    41   1
    44     6    42   1
    45     6    43   1
    46     6    44   1
    47    10    45   1
    48    11    46   1
    49    12    47   1
    50    13    48   1
    51    14    49   1
    52    15    50   1
    53    16    51   1
    54    17    52   1
    55    18    53   1
    56    19    54   1
    57    20    55   1
    58    20    56   1
    59    21    57   1
    60    21    58   1
    61    22    59   1
    62    22    60   1
    63    23    61   1
    64    23    62   1
    65    24    63   1
    66    24    64   1
    67    25    65   1
    68    25    66   1
    69    26    67   1
    70    33    68   1
    71    34    69   1
    72    36    70   1
@<TRIPOS>SUBSTRUCTURE
     1  LSW      1

