@<TRIPOS>MOLECULE
3l3n_ligand_005
    70    72
SMALL
GAST_HUCK
****
This file was generated by PARSER (from files_GN.cpp)

@<TRIPOS>ATOM
      1 C          47.4305   13.7901  111.2963 C.2         1 LSW       0.0847
      2 N          45.2921   14.7851  112.0389 N.4         1 LSW       0.2599
      3 O          46.8898   13.2396  110.1854 O.co2       1 LSW      -0.5643
      4 CA         46.7706   14.9632  111.9334 C.3         1 LSW       0.0340
      5 CB         47.3363   15.2919  113.3556 C.3         1 LSW       0.0122
      6 NAA        39.0759   15.1801  113.9564 N.4         1 LSW       0.2185
      7 OAC        44.9583   17.3651  105.7547 O.co2       1 LSW      -0.5665
      8 OAD        45.1344   16.5958  110.0040 O.2         1 LSW      -0.3908
      9 OAF        45.8956   17.3580  107.8821 O.co2       1 LSW      -0.5665
     10 CAG        49.1874   18.8069  116.6032 C.ar        1 LSW      -0.0687
     11 CAH        49.2055   17.4051  116.7172 C.ar        1 LSW      -0.0686
     12 CAI        48.2672   19.4271  115.7393 C.ar        1 LSW      -0.0686
     13 CAJ        37.7152   18.2854  109.9442 C.ar        1 LSW      -0.0768
     14 CAK        38.8226   19.1632  109.9568 C.ar        1 LSW      -0.0792
     15 CAL        48.3232   16.6214  115.9496 C.ar        1 LSW      -0.0603
     16 CAM        47.3964   18.6410  114.9642 C.ar        1 LSW      -0.0603
     17 CAN        37.8454   16.9774  109.4358 C.ar        1 LSW      -0.0443
     18 CAO        40.0717   18.7417  109.4457 C.ar        1 LSW      -0.0747
     19 CAP        40.7639   15.4602  108.0825 C.2         1 LSW       0.0166
     20 CAQ        40.5453   15.1716  113.9690 C.3         1 LSW      -0.0354
     21 CAR        41.0989   14.0485  113.0569 C.3         1 LSW      -0.0123
     22 CAS        42.6194   14.1690  112.7568 C.3         1 LSW      -0.0410
     23 CAT        46.5677   16.3974  114.1464 C.3         1 LSW      -0.0125
     24 CAU        42.9165   14.5809  111.2908 C.3         1 LSW       0.0081
     25 CAW        42.6008   17.3102  108.1177 C.3         1 LSW      -0.0013
     26 NAX        43.9929   15.3240  108.6011 N.am        1 LSW      -0.2657
     27 CBB        44.8615   17.0289  107.0606 C.2         1 LSW       0.0613
     28 CBC        44.5961   15.5229  109.7700 C.2         1 LSW       0.2263
     29 CBD        47.4301   17.2272  115.0344 C.ar        1 LSW      -0.0427
     30 CBE        41.2558   16.7403  108.3676 C.2         1 LSW      -0.0424
     31 CBF        39.1000   16.5627  108.9610 C.ar        1 LSW       0.0603
     32 CBG        40.1912   17.4307  108.9388 C.ar        1 LSW      -0.0214
     33 CBI        44.4132   14.5507  110.8505 C.3         1 LSW       0.0683
     34 CBJ        43.6828   16.3133  107.5957 C.3         1 LSW       0.0987
     35 OXT        48.7564   13.5660  111.4234 O.co2       1 LSW      -0.5643
     36 NXZ        39.4760   15.3832  108.4515 N.pl3       1 LSW      -0.2891
     37 H1         44.9133   15.6253  112.4906 H           1 LSW       0.2052
     38 H2         45.1680   14.0073  112.6880 H           1 LSW       0.2052
     39 H3         46.9972   15.8265  111.3155 H           1 LSW       0.1027
     40 H4         48.3706   15.6191  113.2378 H           1 LSW       0.0361
     41 H5         47.3462   14.3768  113.9569 H           1 LSW       0.0361
     42 H6         38.7298   15.8228  114.6715 H           1 LSW       0.1994
     43 H7         38.7251   14.2408  114.1521 H           1 LSW       0.1994
     44 H8         38.7424   15.4891  113.0423 H           1 LSW       0.1994
     45 H9         49.8361   19.3759  117.1521 H           1 LSW       0.0559
     46 H10        49.8710   16.9555  117.3469 H           1 LSW       0.0599
     47 H11        48.2498   20.4451  115.6636 H           1 LSW       0.0599
     48 H12        36.8106   18.6003  110.3006 H           1 LSW       0.0530
     49 H13        38.7139   20.1110  110.3229 H           1 LSW       0.0510
     50 H14        48.3568   15.6038  116.0480 H           1 LSW       0.0557
     51 H15        46.7407   19.1125  114.3412 H           1 LSW       0.0557
     52 H16        37.0546   16.3411  109.4119 H           1 LSW       0.0541
     53 H17        40.8686   19.3825  109.4467 H           1 LSW       0.0540
     54 H18        41.2788   14.6885  107.6565 H           1 LSW       0.0795
     55 H19        40.8804   15.0180  114.9957 H           1 LSW       0.0813
     56 H20        40.8856   16.1555  113.6386 H           1 LSW       0.0813
     57 H21        40.5360   14.0376  112.1165 H           1 LSW       0.0317
     58 H22        40.9161   13.0921  113.5540 H           1 LSW       0.0317
     59 H23        43.0933   13.2024  112.9575 H           1 LSW       0.0270
     60 H24        43.0536   14.8957  113.4451 H           1 LSW       0.0270
     61 H25        45.7989   15.9239  114.7631 H           1 LSW       0.0429
     62 H26        46.0507   17.0425  113.4279 H           1 LSW       0.0429
     63 H27        42.5174   15.5843  111.1271 H           1 LSW       0.0346
     64 H28        42.3554   13.9032  110.6441 H           1 LSW       0.0346
     65 H29        42.9521   17.7458  109.0565 H           1 LSW       0.0390
     66 H30        42.4829   18.1263  107.3988 H           1 LSW       0.0390
     67 H31        43.5971   14.4509  108.4605 H           1 LSW       0.1878
     68 H32        44.6150   13.5490  110.4655 H           1 LSW       0.1099
     69 H33        43.2434   15.7777  106.7482 H           1 LSW       0.0741
     70 H34        38.9070   14.6015  108.3566 H           1 LSW       0.2216
@<TRIPOS>BOND
     1     1     3  ar
     2     4     1   1
     3     1    35  ar
     4     2     4   1
     5    33     2   1
     6     4     5   1
     7     5    23   1
     8    20     6   1
     9    27     7  ar
    10    28     8   2
    11    27     9  ar
    12    11    10  ar
    13    12    10  ar
    14    15    11  ar
    15    16    12  ar
    16    14    13  ar
    17    13    17  ar
    18    18    14  ar
    19    29    15  ar
    20    29    16  ar
    21    17    31  ar
    22    32    18  ar
    23    30    19   2
    24    19    36   1
    25    21    20   1
    26    22    21   1
    27    24    22   1
    28    23    29   1
    29    33    24   1
    30    30    25   1
    31    25    34   1
    32    26    28  am
    33    34    26   1
    34    34    27   1
    35    28    33   1
    36    30    32   1
    37    31    32  ar
    38    31    36   1
    39     2    37   1
    40     2    38   1
    41     4    39   1
    42     5    40   1
    43     5    41   1
    44     6    42   1
    45     6    43   1
    46     6    44   1
    47    10    45   1
    48    11    46   1
    49    12    47   1
    50    13    48   1
    51    14    49   1
    52    15    50   1
    53    16    51   1
    54    17    52   1
    55    18    53   1
    56    19    54   1
    57    20    55   1
    58    20    56   1
    59    21    57   1
    60    21    58   1
    61    22    59   1
    62    22    60   1
    63    23    61   1
    64    23    62   1
    65    24    63   1
    66    24    64   1
    67    25    65   1
    68    25    66   1
    69    26    67   1
    70    33    68   1
    71    34    69   1
    72    36    70   1
@<TRIPOS>SUBSTRUCTURE
     1  LSW      1

