@<TRIPOS>MOLECULE
3l3n_ligand_061
    70    72
SMALL
GAST_HUCK
****
This file was generated by PARSER (from files_GN.cpp)

@<TRIPOS>ATOM
      1 C          42.6610   12.9035  105.9765 C.2         1 LSW       0.0847
      2 N          41.8621   14.0334  108.0013 N.4         1 LSW       0.2599
      3 O          43.6363   12.4581  105.1480 O.co2       1 LSW      -0.5643
      4 CA         42.9876   13.2915  107.3697 C.3         1 LSW       0.0340
      5 CB         43.4391   12.0680  108.2240 C.3         1 LSW       0.0122
      6 NAA        44.3337   19.5243  105.2907 N.4         1 LSW       0.2185
      7 OAC        38.9530   15.2826  114.0170 O.co2       1 LSW      -0.5665
      8 OAD        40.0808   14.5289  109.8795 O.2         1 LSW      -0.3908
      9 OAF        39.1575   13.9971  112.1168 O.co2       1 LSW      -0.5665
     10 CAG        44.8191    7.4213  109.7604 C.ar        1 LSW      -0.0687
     11 CAH        44.5471    8.5719  110.5239 C.ar        1 LSW      -0.0686
     12 CAI        44.3435    7.3287  108.4436 C.ar        1 LSW      -0.0686
     13 CAJ        39.9279   21.6876  108.8085 C.ar        1 LSW      -0.0768
     14 CAK        40.3884   21.6605  110.1438 C.ar        1 LSW      -0.0792
     15 CAL        43.8273    9.6374  109.9582 C.ar        1 LSW      -0.0603
     16 CAM        43.6232    8.3930  107.8753 C.ar        1 LSW      -0.0603
     17 CAN        39.3381   20.5364  108.2376 C.ar        1 LSW      -0.0443
     18 CAO        40.2839   20.4851  110.9150 C.ar        1 LSW      -0.0747
     19 CAP        38.7788   17.3885  109.7965 C.2         1 LSW       0.0166
     20 CAQ        43.5155   18.3278  105.0675 C.3         1 LSW      -0.0354
     21 CAR        42.5838   18.0037  106.2734 C.3         1 LSW      -0.0123
     22 CAS        42.9946   16.7328  107.0710 C.3         1 LSW      -0.0410
     23 CAT        42.6662   10.7322  108.0012 C.3         1 LSW      -0.0125
     24 CAU        42.1115   16.5302  108.3306 C.3         1 LSW       0.0081
     25 CAW        39.7535   17.5107  112.1878 C.3         1 LSW      -0.0013
     26 NAX        41.3566   15.8176  111.1871 N.am        1 LSW      -0.2657
     27 CBB        39.6163   15.0394  112.8587 C.2         1 LSW       0.0613
     28 CBC        41.1486   15.1009  110.0716 C.2         1 LSW       0.2263
     29 CBD        43.3662    9.5690  108.6202 C.ar        1 LSW      -0.0427
     30 CBE        39.4453   18.0482  110.8333 C.2         1 LSW      -0.0424
     31 CBF        39.2290   19.3792  109.0293 C.ar        1 LSW       0.0603
     32 CBG        39.7027   19.3325  110.3443 C.ar        1 LSW      -0.0214
     33 CBI        42.1497   15.1174  109.0033 C.3         1 LSW       0.0683
     34 CBJ        40.4843   16.1206  112.2959 C.3         1 LSW       0.0987
     35 OXT        41.3827   12.8640  105.5289 O.co2       1 LSW      -0.5643
     36 NXZ        38.6830   18.1932  108.7252 N.pl3       1 LSW      -0.2891
     37 H1         41.2598   13.3318  108.4450 H           1 LSW       0.2052
     38 H2         41.3047   14.4624  107.2556 H           1 LSW       0.2052
     39 H3         43.8436   13.9615  107.2962 H           1 LSW       0.1027
     40 H4         43.3630   12.3429  109.2804 H           1 LSW       0.0361
     41 H5         44.4997   11.9008  108.0169 H           1 LSW       0.0361
     42 H6         44.9597   19.6537  104.4890 H           1 LSW       0.1994
     43 H7         44.8862   19.4182  106.1452 H           1 LSW       0.1994
     44 H8         43.7225   20.3403  105.3738 H           1 LSW       0.1994
     45 H9         45.3711    6.6567  110.1641 H           1 LSW       0.0559
     46 H10        44.8852    8.6352  111.4868 H           1 LSW       0.0599
     47 H11        44.5424    6.4899  107.8900 H           1 LSW       0.0599
     48 H12        40.0180   22.5426  108.2531 H           1 LSW       0.0530
     49 H13        40.8119   22.5013  110.5498 H           1 LSW       0.0510
     50 H14        43.6433   10.4666  110.5248 H           1 LSW       0.0557
     51 H15        43.2997    8.3115  106.9072 H           1 LSW       0.0557
     52 H16        38.9868   20.5533  107.2746 H           1 LSW       0.0541
     53 H17        40.6201   20.4774  111.8800 H           1 LSW       0.0540
     54 H18        38.4250   16.4376  109.8261 H           1 LSW       0.0795
     55 H19        44.1864   17.4916  104.8506 H           1 LSW       0.0813
     56 H20        42.9074   18.5108  104.1777 H           1 LSW       0.0813
     57 H21        41.5739   17.8380  105.8826 H           1 LSW       0.0317
     58 H22        42.5378   18.8591  106.9503 H           1 LSW       0.0317
     59 H23        44.0508   16.8064  107.3634 H           1 LSW       0.0270
     60 H24        42.8826   15.8726  106.4088 H           1 LSW       0.0270
     61 H25        42.5421   10.5525  106.9286 H           1 LSW       0.0429
     62 H26        41.6597   10.8105  108.4271 H           1 LSW       0.0429
     63 H27        41.0692   16.7401  108.0482 H           1 LSW       0.0346
     64 H28        42.4138   17.2873  109.0611 H           1 LSW       0.0346
     65 H29        38.8095   17.4887  112.7358 H           1 LSW       0.0390
     66 H30        40.3642   18.2547  112.7002 H           1 LSW       0.0390
     67 H31        42.2240   16.2611  111.2461 H           1 LSW       0.1878
     68 H32        43.1302   14.9474  109.4609 H           1 LSW       0.1099
     69 H33        41.2164   16.2667  113.0944 H           1 LSW       0.0741
     70 H34        38.2746   17.9636  107.8731 H           1 LSW       0.2216
@<TRIPOS>BOND
     1     1     3  ar
     2     4     1   1
     3     1    35  ar
     4     2     4   1
     5    33     2   1
     6     4     5   1
     7     5    23   1
     8    20     6   1
     9    27     7  ar
    10    28     8   2
    11    27     9  ar
    12    11    10  ar
    13    12    10  ar
    14    15    11  ar
    15    16    12  ar
    16    14    13  ar
    17    13    17  ar
    18    18    14  ar
    19    29    15  ar
    20    29    16  ar
    21    17    31  ar
    22    32    18  ar
    23    30    19   2
    24    19    36   1
    25    21    20   1
    26    22    21   1
    27    24    22   1
    28    23    29   1
    29    33    24   1
    30    30    25   1
    31    25    34   1
    32    26    28  am
    33    34    26   1
    34    34    27   1
    35    28    33   1
    36    30    32   1
    37    31    32  ar
    38    31    36   1
    39     2    37   1
    40     2    38   1
    41     4    39   1
    42     5    40   1
    43     5    41   1
    44     6    42   1
    45     6    43   1
    46     6    44   1
    47    10    45   1
    48    11    46   1
    49    12    47   1
    50    13    48   1
    51    14    49   1
    52    15    50   1
    53    16    51   1
    54    17    52   1
    55    18    53   1
    56    19    54   1
    57    20    55   1
    58    20    56   1
    59    21    57   1
    60    21    58   1
    61    22    59   1
    62    22    60   1
    63    23    61   1
    64    23    62   1
    65    24    63   1
    66    24    64   1
    67    25    65   1
    68    25    66   1
    69    26    67   1
    70    33    68   1
    71    34    69   1
    72    36    70   1
@<TRIPOS>SUBSTRUCTURE
     1  LSW      1

