@<TRIPOS>MOLECULE
3l3n_ligand_044
    70    72
SMALL
GAST_HUCK
****
This file was generated by PARSER (from files_GN.cpp)

@<TRIPOS>ATOM
      1 C          47.1125   13.7025  110.9619 C.2         1 LSW       0.0847
      2 N          44.9142   14.3979  111.9005 N.4         1 LSW       0.2599
      3 O          48.3834   13.4077  111.3234 O.co2       1 LSW      -0.5643
      4 CA         46.3123   14.7982  111.5690 C.3         1 LSW       0.0340
      5 CB         47.0036   15.3701  112.8517 C.3         1 LSW       0.0122
      6 NAA        41.0553    8.8568  112.8982 N.4         1 LSW       0.2185
      7 OAC        43.8371   15.7068  106.8474 O.co2       1 LSW      -0.5665
      8 OAD        43.8268   15.3376  109.5185 O.2         1 LSW      -0.3908
      9 OAF        41.5550   15.6432  107.1891 O.co2       1 LSW      -0.5665
     10 CAG        48.1020   17.8565  117.2234 C.ar        1 LSW      -0.0687
     11 CAH        47.8927   18.7466  116.1554 C.ar        1 LSW      -0.0686
     12 CAI        47.7032   16.5107  117.1000 C.ar        1 LSW      -0.0686
     13 CAJ        42.0442    7.6115  105.6925 C.ar        1 LSW      -0.0768
     14 CAK        41.9868    8.7429  104.8461 C.ar        1 LSW      -0.0792
     15 CAL        47.2687   18.2975  114.9740 C.ar        1 LSW      -0.0603
     16 CAM        47.0968   16.0664  115.9130 C.ar        1 LSW      -0.0603
     17 CAN        41.9530    7.7672  107.0965 C.ar        1 LSW      -0.0443
     18 CAO        41.8485   10.0379  105.3877 C.ar        1 LSW      -0.0747
     19 CAP        41.5752   10.8007  108.9164 C.2         1 LSW       0.0166
     20 CAQ        40.9349   10.1960  113.4992 C.3         1 LSW      -0.0354
     21 CAR        41.1596   11.3776  112.5098 C.3         1 LSW      -0.0123
     22 CAS        42.6324   11.8877  112.4231 C.3         1 LSW      -0.0410
     23 CAT        46.1910   16.4624  113.6007 C.3         1 LSW      -0.0125
     24 CAU        42.7102   13.2442  111.6628 C.3         1 LSW       0.0081
     25 CAW        41.5338   12.7390  107.2285 C.3         1 LSW      -0.0013
     26 NAX        43.4104   13.2940  108.7171 N.am        1 LSW      -0.2657
     27 CBB        42.7231   14.9619  107.0306 C.2         1 LSW       0.0613
     28 CBC        43.8264   14.1166  109.6791 C.2         1 LSW       0.2263
     29 CBD        46.8721   16.9461  114.8284 C.ar        1 LSW      -0.0427
     30 CBE        41.6289   11.3074  107.6122 C.2         1 LSW      -0.0424
     31 CBF        41.8010    9.0637  107.6212 C.ar        1 LSW       0.0603
     32 CBG        41.7574   10.1877  106.7865 C.ar        1 LSW      -0.0214
     33 CBI        44.0903   13.5548  110.9912 C.3         1 LSW       0.0683
     34 CBJ        42.8633   13.5349  107.4113 C.3         1 LSW       0.0987
     35 OXT        46.6453   13.1057  109.8474 O.co2       1 LSW      -0.5643
     36 NXZ        41.6900    9.4646  108.8948 N.pl3       1 LSW      -0.2891
     37 H1         44.3841   15.2627  112.0462 H           1 LSW       0.2052
     38 H2         44.9650   13.9057  112.7875 H           1 LSW       0.2052
     39 H3         46.2701   15.6099  110.8313 H           1 LSW       0.1027
     40 H4         47.9648   15.8032  112.5606 H           1 LSW       0.0361
     41 H5         47.2053   14.5418  113.5393 H           1 LSW       0.0361
     42 H6         40.6100    8.2107  113.5598 H           1 LSW       0.1994
     43 H7         42.0487    8.6078  112.7601 H           1 LSW       0.1994
     44 H8         40.5529    8.8380  111.9996 H           1 LSW       0.1994
     45 H9         48.5378   18.1838  118.0899 H           1 LSW       0.0559
     46 H10        48.1785   19.7281  116.2461 H           1 LSW       0.0599
     47 H11        47.8324   15.8654  117.8822 H           1 LSW       0.0599
     48 H12        42.1605    6.6743  105.2889 H           1 LSW       0.0530
     49 H13        42.0662    8.6184  103.8361 H           1 LSW       0.0510
     50 H14        47.1045   18.9720  114.2217 H           1 LSW       0.0557
     51 H15        46.8065   15.0866  115.8481 H           1 LSW       0.0557
     52 H16        41.9919    6.9502  107.7134 H           1 LSW       0.0541
     53 H17        41.8238   10.8504  104.7757 H           1 LSW       0.0540
     54 H18        41.4886   11.3452  109.7791 H           1 LSW       0.0795
     55 H19        41.6365   10.2714  114.3339 H           1 LSW       0.0813
     56 H20        39.9111   10.2745  113.8839 H           1 LSW       0.0813
     57 H21        40.5110   12.2172  112.8186 H           1 LSW       0.0317
     58 H22        40.8259   11.0594  111.5020 H           1 LSW       0.0317
     59 H23        43.2123   11.1258  111.8890 H           1 LSW       0.0270
     60 H24        43.0357   12.0002  113.4378 H           1 LSW       0.0270
     61 H25        45.2230   16.0601  113.8918 H           1 LSW       0.0429
     62 H26        46.0178   17.2832  112.9042 H           1 LSW       0.0429
     63 H27        42.4468   14.0423  112.3695 H           1 LSW       0.0346
     64 H28        41.9194   13.2247  110.9022 H           1 LSW       0.0346
     65 H29        40.7551   13.2169  107.8260 H           1 LSW       0.0390
     66 H30        41.2167   12.7889  106.1876 H           1 LSW       0.0390
     67 H31        43.4226   12.3606  108.9655 H           1 LSW       0.1878
     68 H32        44.6104   12.6002  110.8664 H           1 LSW       0.1099
     69 H33        43.5865   13.1271  106.7024 H           1 LSW       0.0741
     70 H34        41.6705    8.8759  109.6696 H           1 LSW       0.2216
@<TRIPOS>BOND
     1     1     3  ar
     2     4     1   1
     3     1    35  ar
     4     2     4   1
     5    33     2   1
     6     4     5   1
     7     5    23   1
     8    20     6   1
     9    27     7  ar
    10    28     8   2
    11    27     9  ar
    12    11    10  ar
    13    12    10  ar
    14    15    11  ar
    15    16    12  ar
    16    14    13  ar
    17    13    17  ar
    18    18    14  ar
    19    29    15  ar
    20    29    16  ar
    21    17    31  ar
    22    32    18  ar
    23    30    19   2
    24    19    36   1
    25    21    20   1
    26    22    21   1
    27    24    22   1
    28    23    29   1
    29    33    24   1
    30    30    25   1
    31    25    34   1
    32    26    28  am
    33    34    26   1
    34    34    27   1
    35    28    33   1
    36    30    32   1
    37    31    32  ar
    38    31    36   1
    39     2    37   1
    40     2    38   1
    41     4    39   1
    42     5    40   1
    43     5    41   1
    44     6    42   1
    45     6    43   1
    46     6    44   1
    47    10    45   1
    48    11    46   1
    49    12    47   1
    50    13    48   1
    51    14    49   1
    52    15    50   1
    53    16    51   1
    54    17    52   1
    55    18    53   1
    56    19    54   1
    57    20    55   1
    58    20    56   1
    59    21    57   1
    60    21    58   1
    61    22    59   1
    62    22    60   1
    63    23    61   1
    64    23    62   1
    65    24    63   1
    66    24    64   1
    67    25    65   1
    68    25    66   1
    69    26    67   1
    70    33    68   1
    71    34    69   1
    72    36    70   1
@<TRIPOS>SUBSTRUCTURE
     1  LSW      1

