@<TRIPOS>MOLECULE
3l3n_ligand_010
    70    72
SMALL
GAST_HUCK
****
This file was generated by PARSER (from files_GN.cpp)

@<TRIPOS>ATOM
      1 C          46.7362   13.5492  110.4773 C.2         1 LSW       0.0847
      2 N          44.6787   14.3263  111.6824 N.4         1 LSW       0.2599
      3 O          48.0286   13.2039  110.7291 O.co2       1 LSW      -0.5643
      4 CA         46.0390   14.6651  111.1598 C.3         1 LSW       0.0340
      5 CB         46.9020   15.2347  112.3498 C.3         1 LSW       0.0122
      6 NAA        40.6888    9.0483  112.6609 N.4         1 LSW       0.2185
      7 OAC        44.5202   13.5822  106.8038 O.co2       1 LSW      -0.5665
      8 OAD        43.7743   14.6198  109.0481 O.2         1 LSW      -0.3908
      9 OAF        43.2744   12.3739  105.2734 O.co2       1 LSW      -0.5665
     10 CAG        48.3824   17.2447  116.9091 C.ar        1 LSW      -0.0687
     11 CAH        47.9907   18.2739  116.0421 C.ar        1 LSW      -0.0686
     12 CAI        48.0971   15.9069  116.5937 C.ar        1 LSW      -0.0686
     13 CAJ        41.3566   18.2972  108.0347 C.ar        1 LSW      -0.0768
     14 CAK        42.0057   17.5481  107.0412 C.ar        1 LSW      -0.0792
     15 CAL        47.3054   17.9699  114.8447 C.ar        1 LSW      -0.0603
     16 CAM        47.3969   15.6063  115.3976 C.ar        1 LSW      -0.0603
     17 CAN        40.4818   17.6675  108.9531 C.ar        1 LSW      -0.0443
     18 CAO        41.8029   16.1470  106.9383 C.ar        1 LSW      -0.0747
     19 CAP        39.7028   14.2081  109.1641 C.2         1 LSW       0.0166
     20 CAQ        40.9433   10.4576  112.3340 C.3         1 LSW      -0.0354
     21 CAR        42.2959   10.9542  112.9097 C.3         1 LSW      -0.0123
     22 CAS        42.3899   12.4943  113.1033 C.3         1 LSW      -0.0410
     23 CAT        46.2286   16.2879  113.2757 C.3         1 LSW      -0.0125
     24 CAU        42.3945   13.3626  111.8183 C.3         1 LSW       0.0081
     25 CAW        40.9805   12.9745  107.3332 C.3         1 LSW      -0.0013
     26 NAX        42.8866   12.5563  108.9297 N.am        1 LSW      -0.2657
     27 CBB        43.3906   12.8711  106.5182 C.2         1 LSW       0.0613
     28 CBC        43.4387   13.5597  109.6130 C.2         1 LSW       0.2263
     29 CBD        47.0124   16.6285  114.5056 C.ar        1 LSW      -0.0427
     30 CBE        40.5726   14.1966  108.0698 C.2         1 LSW      -0.0424
     31 CBF        40.2965   16.2848  108.8495 C.ar        1 LSW       0.0603
     32 CBG        40.9360   15.5240  107.8707 C.ar        1 LSW      -0.0214
     33 CBI        43.7381   13.3622  111.0131 C.3         1 LSW       0.0683
     34 CBJ        42.4377   12.4463  107.5700 C.3         1 LSW       0.0987
     35 OXT        46.1634   12.8949  109.4351 O.co2       1 LSW      -0.5643
     36 NXZ        39.5478   15.4604  109.6133 N.pl3       1 LSW      -0.2891
     37 H1         44.1736   15.2122  111.7907 H           1 LSW       0.2052
     38 H2         44.8414   13.9463  112.6174 H           1 LSW       0.2052
     39 H3         45.9158   15.4779  110.4387 H           1 LSW       0.1027
     40 H4         47.8102   15.6796  111.9340 H           1 LSW       0.0361
     41 H5         47.2120   14.3833  112.9614 H           1 LSW       0.0361
     42 H6         39.8478    8.7334  112.1701 H           1 LSW       0.1994
     43 H7         40.5441    8.9431  113.6679 H           1 LSW       0.1994
     44 H8         41.4843    8.4754  112.3649 H           1 LSW       0.1994
     45 H9         48.8769   17.4632  117.7785 H           1 LSW       0.0559
     46 H10        48.1915   19.2492  116.2794 H           1 LSW       0.0599
     47 H11        48.3776   15.1521  117.2173 H           1 LSW       0.0599
     48 H12        41.5184   19.3056  108.1066 H           1 LSW       0.0530
     49 H13        42.6482   18.0083  106.3893 H           1 LSW       0.0510
     50 H14        47.0137   18.7389  114.2390 H           1 LSW       0.0557
     51 H15        47.1783   14.6286  115.2074 H           1 LSW       0.0557
     52 H16        40.0118   18.2086  109.6814 H           1 LSW       0.0541
     53 H17        42.2850   15.6043  106.2298 H           1 LSW       0.0540
     54 H18        39.2611   13.3888  109.5842 H           1 LSW       0.0795
     55 H19        40.1198   11.0458  112.7383 H           1 LSW       0.0813
     56 H20        40.9414   10.5591  111.2453 H           1 LSW       0.0813
     57 H21        43.1035   10.6038  112.2645 H           1 LSW       0.0317
     58 H22        42.4409   10.4980  113.8954 H           1 LSW       0.0317
     59 H23        43.2839   12.7227  113.6918 H           1 LSW       0.0270
     60 H24        41.5272   12.8025  113.6993 H           1 LSW       0.0270
     61 H25        45.2672   15.9145  113.6365 H           1 LSW       0.0429
     62 H26        46.0246   17.1854  112.6818 H           1 LSW       0.0429
     63 H27        42.1725   14.3955  112.1042 H           1 LSW       0.0346
     64 H28        41.5552   13.0368  111.1939 H           1 LSW       0.0346
     65 H29        40.7909   13.1460  106.2680 H           1 LSW       0.0390
     66 H30        40.2921   12.1734  107.6264 H           1 LSW       0.0390
     67 H31        42.7722   11.7419  109.4530 H           1 LSW       0.1878
     68 H32        44.2059   12.3823  111.1149 H           1 LSW       0.1099
     69 H33        42.3707   11.3620  107.4233 H           1 LSW       0.0741
     70 H34        38.9921   15.7209  110.3642 H           1 LSW       0.2216
@<TRIPOS>BOND
     1     1     3  ar
     2     4     1   1
     3     1    35  ar
     4     2     4   1
     5    33     2   1
     6     4     5   1
     7     5    23   1
     8    20     6   1
     9    27     7  ar
    10    28     8   2
    11    27     9  ar
    12    11    10  ar
    13    12    10  ar
    14    15    11  ar
    15    16    12  ar
    16    14    13  ar
    17    13    17  ar
    18    18    14  ar
    19    29    15  ar
    20    29    16  ar
    21    17    31  ar
    22    32    18  ar
    23    30    19   2
    24    19    36   1
    25    21    20   1
    26    22    21   1
    27    24    22   1
    28    23    29   1
    29    33    24   1
    30    30    25   1
    31    25    34   1
    32    26    28  am
    33    34    26   1
    34    34    27   1
    35    28    33   1
    36    30    32   1
    37    31    32  ar
    38    31    36   1
    39     2    37   1
    40     2    38   1
    41     4    39   1
    42     5    40   1
    43     5    41   1
    44     6    42   1
    45     6    43   1
    46     6    44   1
    47    10    45   1
    48    11    46   1
    49    12    47   1
    50    13    48   1
    51    14    49   1
    52    15    50   1
    53    16    51   1
    54    17    52   1
    55    18    53   1
    56    19    54   1
    57    20    55   1
    58    20    56   1
    59    21    57   1
    60    21    58   1
    61    22    59   1
    62    22    60   1
    63    23    61   1
    64    23    62   1
    65    24    63   1
    66    24    64   1
    67    25    65   1
    68    25    66   1
    69    26    67   1
    70    33    68   1
    71    34    69   1
    72    36    70   1
@<TRIPOS>SUBSTRUCTURE
     1  LSW      1

