@<TRIPOS>MOLECULE
3l3n_ligand_022
    70    72
SMALL
GAST_HUCK
****
This file was generated by PARSER (from files_GN.cpp)

@<TRIPOS>ATOM
      1 C          43.7700   13.2825  111.2432 C.2         1 LSW       0.0847
      2 N          43.9529   15.5124  110.1094 N.4         1 LSW       0.2599
      3 O          43.8740   12.0010  110.8204 O.co2       1 LSW      -0.5643
      4 CA         44.6622   14.3275  110.6936 C.3         1 LSW       0.0340
      5 CB         45.7452   14.7704  111.7333 C.3         1 LSW       0.0122
      6 NAA        42.1640   19.7583  104.5262 N.4         1 LSW       0.2185
      7 OAC        43.5367   12.5212  105.1836 O.co2       1 LSW      -0.5665
      8 OAD        43.9406   14.4000  107.3979 O.2         1 LSW      -0.3908
      9 OAF        41.2189   12.5662  105.2900 O.co2       1 LSW      -0.5665
     10 CAG        47.6960   17.3411  115.9567 C.ar        1 LSW      -0.0687
     11 CAH        46.3580   17.0389  116.2482 C.ar        1 LSW      -0.0686
     12 CAI        48.2625   16.8954  114.7495 C.ar        1 LSW      -0.0686
     13 CAJ        44.6925    6.8616  108.9504 C.ar        1 LSW      -0.0768
     14 CAK        44.5249    8.0649  109.6681 C.ar        1 LSW      -0.0792
     15 CAL        45.5823   16.3161  115.3258 C.ar        1 LSW      -0.0603
     16 CAM        47.4909   16.1454  113.8406 C.ar        1 LSW      -0.0603
     17 CAN        43.9474    6.6205  107.7756 C.ar        1 LSW      -0.0443
     18 CAO        43.6195    9.0440  109.2118 C.ar        1 LSW      -0.0747
     19 CAP        41.5548    8.7905  106.2515 C.2         1 LSW       0.0166
     20 CAQ        42.6101   18.4565  105.0389 C.3         1 LSW      -0.0354
     21 CAR        42.1335   18.2380  106.4942 C.3         1 LSW      -0.0123
     22 CAS        42.8824   17.0563  107.1826 C.3         1 LSW      -0.0410
     23 CAT        45.2280   15.1370  113.1526 C.3         1 LSW      -0.0125
     24 CAU        42.2760   16.6395  108.5525 C.3         1 LSW       0.0081
     25 CAW        41.4459   10.9051  107.7160 C.3         1 LSW      -0.0013
     26 NAX        42.2419   13.1781  108.1658 N.am        1 LSW      -0.2657
     27 CBB        42.4055   12.3645  105.9067 C.2         1 LSW       0.0613
     28 CBC        43.0079   14.2658  108.1892 C.2         1 LSW       0.2263
     29 CBD        46.1248   15.8709  114.0963 C.ar        1 LSW      -0.0427
     30 CBE        41.9377    9.5568  107.3516 C.2         1 LSW      -0.0424
     31 CBF        43.0520    7.6073  107.3266 C.ar        1 LSW       0.0603
     32 CBG        42.8916    8.8009  108.0329 C.ar        1 LSW      -0.0214
     33 CBI        42.7828   15.2996  109.1951 C.3         1 LSW       0.0683
     34 CBJ        42.4658   12.0201  107.3471 C.3         1 LSW       0.0987
     35 OXT        42.7729   13.5840  112.1079 O.co2       1 LSW      -0.5643
     36 NXZ        42.2383    7.6307  106.2592 N.pl3       1 LSW      -0.2891
     37 H1         44.6470   16.0563  109.5878 H           1 LSW       0.2052
     38 H2         43.6239   16.0935  110.8901 H           1 LSW       0.2052
     39 H3         45.2271   13.8765  109.8680 H           1 LSW       0.1027
     40 H4         46.2725   15.6353  111.3155 H           1 LSW       0.0361
     41 H5         46.4719   13.9589  111.8376 H           1 LSW       0.0361
     42 H6         42.4140   19.8264  103.5393 H           1 LSW       0.1994
     43 H7         42.6211   20.5106  105.0437 H           1 LSW       0.1994
     44 H8         41.1504   19.8344  104.6290 H           1 LSW       0.1994
     45 H9         48.2596   17.8809  116.6190 H           1 LSW       0.0559
     46 H10        45.9502   17.3497  117.1313 H           1 LSW       0.0599
     47 H11        49.2361   17.1195  114.5327 H           1 LSW       0.0599
     48 H12        45.3576    6.1632  109.2859 H           1 LSW       0.0530
     49 H13        45.0581    8.2258  110.5252 H           1 LSW       0.0510
     50 H14        44.6031   16.1186  115.5586 H           1 LSW       0.0557
     51 H15        47.9396   15.8144  112.9863 H           1 LSW       0.0557
     52 H16        44.0540    5.7425  107.2662 H           1 LSW       0.0541
     53 H17        43.4897    9.9085  109.7373 H           1 LSW       0.0540
     54 H18        40.8724    9.0622  105.5434 H           1 LSW       0.0795
     55 H19        43.6997   18.4176  104.9832 H           1 LSW       0.0813
     56 H20        42.1938   17.6776  104.3954 H           1 LSW       0.0813
     57 H21        41.0580   18.0248  106.4739 H           1 LSW       0.0317
     58 H22        42.2911   19.1547  107.0760 H           1 LSW       0.0317
     59 H23        43.9347   17.3275  107.3153 H           1 LSW       0.0270
     60 H24        42.8303   16.1910  106.5093 H           1 LSW       0.0270
     61 H25        44.9338   14.2139  113.6625 H           1 LSW       0.0429
     62 H26        44.3275   15.7374  113.0246 H           1 LSW       0.0429
     63 H27        41.1922   16.5463  108.4054 H           1 LSW       0.0346
     64 H28        42.4282   17.4552  109.2716 H           1 LSW       0.0346
     65 H29        41.2646   10.9089  108.7943 H           1 LSW       0.0390
     66 H30        40.4817   11.0947  107.2329 H           1 LSW       0.0390
     67 H31        41.5068   13.1337  108.8047 H           1 LSW       0.1878
     68 H32        41.9701   14.9774  109.8532 H           1 LSW       0.1099
     69 H33        43.4716   11.6563  107.5849 H           1 LSW       0.0741
     70 H34        42.1564    6.9233  105.6022 H           1 LSW       0.2216
@<TRIPOS>BOND
     1     1     3  ar
     2     4     1   1
     3     1    35  ar
     4     2     4   1
     5    33     2   1
     6     4     5   1
     7     5    23   1
     8    20     6   1
     9    27     7  ar
    10    28     8   2
    11    27     9  ar
    12    11    10  ar
    13    12    10  ar
    14    15    11  ar
    15    16    12  ar
    16    14    13  ar
    17    13    17  ar
    18    18    14  ar
    19    29    15  ar
    20    29    16  ar
    21    17    31  ar
    22    32    18  ar
    23    30    19   2
    24    19    36   1
    25    21    20   1
    26    22    21   1
    27    24    22   1
    28    23    29   1
    29    33    24   1
    30    30    25   1
    31    25    34   1
    32    26    28  am
    33    34    26   1
    34    34    27   1
    35    28    33   1
    36    30    32   1
    37    31    32  ar
    38    31    36   1
    39     2    37   1
    40     2    38   1
    41     4    39   1
    42     5    40   1
    43     5    41   1
    44     6    42   1
    45     6    43   1
    46     6    44   1
    47    10    45   1
    48    11    46   1
    49    12    47   1
    50    13    48   1
    51    14    49   1
    52    15    50   1
    53    16    51   1
    54    17    52   1
    55    18    53   1
    56    19    54   1
    57    20    55   1
    58    20    56   1
    59    21    57   1
    60    21    58   1
    61    22    59   1
    62    22    60   1
    63    23    61   1
    64    23    62   1
    65    24    63   1
    66    24    64   1
    67    25    65   1
    68    25    66   1
    69    26    67   1
    70    33    68   1
    71    34    69   1
    72    36    70   1
@<TRIPOS>SUBSTRUCTURE
     1  LSW      1

