@<TRIPOS>MOLECULE
3l3n_ligand_052
    70    72
SMALL
GAST_HUCK
****
This file was generated by PARSER (from files_GN.cpp)

@<TRIPOS>ATOM
      1 C          44.4311   13.3855  108.3155 C.2         1 LSW       0.0847
      2 N          42.0207   13.9172  108.2874 N.4         1 LSW       0.2599
      3 O          45.5534   13.2838  109.0835 O.co2       1 LSW      -0.5643
      4 CA         43.1068   13.1105  108.9141 C.3         1 LSW       0.0340
      5 CB         42.7456   11.5958  108.7347 C.3         1 LSW       0.0122
      6 NAA        43.7380   19.9190  104.0932 N.4         1 LSW       0.2185
      7 OAC        37.9085   19.5146  107.2160 O.co2       1 LSW      -0.5665
      8 OAD        39.7070   15.1127  108.1009 O.2         1 LSW      -0.3908
      9 OAF        40.1996   19.6818  107.3943 O.co2       1 LSW      -0.5665
     10 CAG        44.3360    6.5941  107.8913 C.ar        1 LSW      -0.0687
     11 CAH        43.4299    7.4433  107.2319 C.ar        1 LSW      -0.0686
     12 CAI        44.9465    7.0137  109.0847 C.ar        1 LSW      -0.0686
     13 CAJ        40.9565   19.4555  114.5915 C.ar        1 LSW      -0.0768
     14 CAK        40.3495   18.2246  114.2533 C.ar        1 LSW      -0.0792
     15 CAL        43.1613    8.7261  107.7447 C.ar        1 LSW      -0.0603
     16 CAM        44.6866    8.2970  109.5960 C.ar        1 LSW      -0.0603
     17 CAN        41.0375   20.4937  113.6358 C.ar        1 LSW      -0.0443
     18 CAO        39.7960   18.0266  112.9758 C.ar        1 LSW      -0.0747
     19 CAP        39.7327   20.4985  110.3259 C.2         1 LSW       0.0166
     20 CAQ        43.0614   18.7069  104.5807 C.3         1 LSW      -0.0354
     21 CAR        43.7494   18.1396  105.8604 C.3         1 LSW      -0.0123
     22 CAS        42.7737   17.5386  106.9185 C.3         1 LSW      -0.0410
     23 CAT        43.7078   10.5890  109.4475 C.3         1 LSW      -0.0125
     24 CAU        42.8037   15.9934  107.0899 C.3         1 LSW       0.0081
     25 CAW        38.5478   18.2398  109.9830 C.3         1 LSW      -0.0013
     26 NAX        40.3426   17.1704  108.6371 N.am        1 LSW      -0.2657
     27 CBB        39.0758   18.9667  107.6261 C.2         1 LSW       0.0613
     28 CBC        40.6229   15.8997  108.3547 C.2         1 LSW       0.2263
     29 CBD        43.8216    9.1896  108.9128 C.ar        1 LSW      -0.0427
     30 CBE        39.3824   19.2092  110.7318 C.2         1 LSW      -0.0424
     31 CBF        40.4977   20.2782  112.3575 C.ar        1 LSW       0.0603
     32 CBG        39.8737   19.0714  112.0308 C.ar        1 LSW      -0.0214
     33 CBI        42.0094   15.4167  108.3172 C.3         1 LSW       0.0683
     34 CBJ        39.0530   17.8243  108.5699 C.3         1 LSW       0.0987
     35 OXT        44.5705   13.5658  106.9873 O.co2       1 LSW      -0.5643
     36 NXZ        40.4189   21.1010  111.3062 N.pl3       1 LSW      -0.2891
     37 H1         41.1643   13.6072  108.7566 H           1 LSW       0.2052
     38 H2         41.9385   13.6282  107.3106 H           1 LSW       0.2052
     39 H3         43.1284   13.3338  109.9838 H           1 LSW       0.1027
     40 H4         42.7207   11.3820  107.6593 H           1 LSW       0.0361
     41 H5         41.7376   11.4259  109.1306 H           1 LSW       0.0361
     42 H6         43.2341   20.2793  103.2731 H           1 LSW       0.1994
     43 H7         44.7105   19.7080  103.8376 H           1 LSW       0.1994
     44 H8         43.7203   20.6351  104.8330 H           1 LSW       0.1994
     45 H9         44.5540    5.6804  107.4980 H           1 LSW       0.0559
     46 H10        42.9729    7.1353  106.3774 H           1 LSW       0.0599
     47 H11        45.5957    6.3957  109.5731 H           1 LSW       0.0599
     48 H12        41.3389   19.5974  115.5288 H           1 LSW       0.0530
     49 H13        40.2979   17.4794  114.9540 H           1 LSW       0.0510
     50 H14        42.4930    9.3166  107.2446 H           1 LSW       0.0557
     51 H15        45.1567    8.5960  110.4599 H           1 LSW       0.0557
     52 H16        41.4590   21.3892  113.8780 H           1 LSW       0.0541
     53 H17        39.3397   17.1404  112.7486 H           1 LSW       0.0540
     54 H18        39.4757   20.9415  109.4477 H           1 LSW       0.0795
     55 H19        43.0641   17.9532  103.7878 H           1 LSW       0.0813
     56 H20        42.0265   18.9958  104.7812 H           1 LSW       0.0813
     57 H21        44.2969   18.9570  106.3364 H           1 LSW       0.0317
     58 H22        44.4942   17.3971  105.5534 H           1 LSW       0.0317
     59 H23        41.7545   17.8123  106.6524 H           1 LSW       0.0270
     60 H24        43.0054   17.9870  107.8917 H           1 LSW       0.0270
     61 H25        43.4026   10.5322  110.5010 H           1 LSW       0.0429
     62 H26        44.7156   11.0182  109.4163 H           1 LSW       0.0429
     63 H27        43.8507   15.7202  107.1965 H           1 LSW       0.0346
     64 H28        42.4294   15.5291  106.1734 H           1 LSW       0.0346
     65 H29        37.5400   18.6569  109.8984 H           1 LSW       0.0390
     66 H30        38.4499   17.3242  110.5624 H           1 LSW       0.0390
     67 H31        41.1012   17.7470  108.8466 H           1 LSW       0.1878
     68 H32        42.4981   15.7371  109.2418 H           1 LSW       0.1099
     69 H33        38.3063   17.1299  108.1732 H           1 LSW       0.0741
     70 H34        40.7589   22.0045  111.2721 H           1 LSW       0.2216
@<TRIPOS>BOND
     1     1     3  ar
     2     4     1   1
     3     1    35  ar
     4     2     4   1
     5    33     2   1
     6     4     5   1
     7     5    23   1
     8    20     6   1
     9    27     7  ar
    10    28     8   2
    11    27     9  ar
    12    11    10  ar
    13    12    10  ar
    14    15    11  ar
    15    16    12  ar
    16    14    13  ar
    17    13    17  ar
    18    18    14  ar
    19    29    15  ar
    20    29    16  ar
    21    17    31  ar
    22    32    18  ar
    23    30    19   2
    24    19    36   1
    25    21    20   1
    26    22    21   1
    27    24    22   1
    28    23    29   1
    29    33    24   1
    30    30    25   1
    31    25    34   1
    32    26    28  am
    33    34    26   1
    34    34    27   1
    35    28    33   1
    36    30    32   1
    37    31    32  ar
    38    31    36   1
    39     2    37   1
    40     2    38   1
    41     4    39   1
    42     5    40   1
    43     5    41   1
    44     6    42   1
    45     6    43   1
    46     6    44   1
    47    10    45   1
    48    11    46   1
    49    12    47   1
    50    13    48   1
    51    14    49   1
    52    15    50   1
    53    16    51   1
    54    17    52   1
    55    18    53   1
    56    19    54   1
    57    20    55   1
    58    20    56   1
    59    21    57   1
    60    21    58   1
    61    22    59   1
    62    22    60   1
    63    23    61   1
    64    23    62   1
    65    24    63   1
    66    24    64   1
    67    25    65   1
    68    25    66   1
    69    26    67   1
    70    33    68   1
    71    34    69   1
    72    36    70   1
@<TRIPOS>SUBSTRUCTURE
     1  LSW      1

