@<TRIPOS>MOLECULE
3l3n_ligand_039
    70    72
SMALL
GAST_HUCK
****
This file was generated by PARSER (from files_GN.cpp)

@<TRIPOS>ATOM
      1 C          44.6024   13.6788  111.1410 C.2         1 LSW       0.0847
      2 N          44.2060   15.9343  110.1088 N.4         1 LSW       0.2599
      3 O          43.6645   13.5032  112.0967 O.co2       1 LSW      -0.5643
      4 CA         45.1478   15.0282  110.8363 C.3         1 LSW       0.0340
      5 CB         45.6370   15.7372  112.1401 C.3         1 LSW       0.0122
      6 NAA        42.1552   19.6942  104.5343 N.4         1 LSW       0.2185
      7 OAC        43.6555   12.9021  105.8691 O.co2       1 LSW      -0.5665
      8 OAD        44.0996   14.4633  107.5038 O.2         1 LSW      -0.3908
      9 OAF        42.3290   11.0055  105.8409 O.co2       1 LSW      -0.5665
     10 CAG        47.7375   16.3498  116.8138 C.ar        1 LSW      -0.0687
     11 CAH        47.9315   15.0220  116.3908 C.ar        1 LSW      -0.0686
     12 CAI        47.3331   17.3246  115.8856 C.ar        1 LSW      -0.0686
     13 CAJ        37.4830   11.7083  106.8425 C.ar        1 LSW      -0.0768
     14 CAK        38.3586   12.6424  107.4447 C.ar        1 LSW      -0.0792
     15 CAL        47.6986   14.6686  115.0501 C.ar        1 LSW      -0.0603
     16 CAM        47.1068   16.9690  114.5438 C.ar        1 LSW      -0.0603
     17 CAN        37.8608   10.3569  106.7236 C.ar        1 LSW      -0.0443
     18 CAO        39.6182   12.2301  107.9356 C.ar        1 LSW      -0.0747
     19 CAP        40.8937    8.8445  107.8058 C.2         1 LSW       0.0166
     20 CAQ        42.5797   18.3783  105.0282 C.3         1 LSW      -0.0354
     21 CAR        42.1481   18.1419  106.4992 C.3         1 LSW      -0.0123
     22 CAS        42.9061   16.9646  107.1761 C.3         1 LSW      -0.0410
     23 CAT        47.0140   15.2507  112.6843 C.3         1 LSW      -0.0125
     24 CAU        42.3263   16.5824  108.5733 C.3         1 LSW       0.0081
     25 CAW        42.4340   10.6570  108.7409 C.3         1 LSW      -0.0013
     26 NAX        42.8380   13.0844  108.7114 N.am        1 LSW      -0.2657
     27 CBB        42.9688   11.9577  106.5606 C.2         1 LSW       0.0613
     28 CBC        43.3310   14.2882  108.4416 C.2         1 LSW       0.2263
     29 CBD        47.2795   15.6336  114.1061 C.ar        1 LSW      -0.0427
     30 CBE        41.1492   10.1723  108.1596 C.2         1 LSW      -0.0424
     31 CBF        39.1090    9.9625  107.2330 C.ar        1 LSW       0.0603
     32 CBG        39.9928   10.8774  107.8151 C.ar        1 LSW      -0.0214
     33 CBI        43.0378   15.4100  109.3286 C.3         1 LSW       0.0683
     34 CBJ        43.1610   11.8584  108.0397 C.3         1 LSW       0.0987
     35 OXT        44.9802   12.6081  110.4001 O.co2       1 LSW      -0.5643
     36 NXZ        39.6810    8.7511  107.2324 N.pl3       1 LSW      -0.2891
     37 H1         44.7809   16.4991  109.4735 H           1 LSW       0.2052
     38 H2         43.8113   16.5770  110.8055 H           1 LSW       0.2052
     39 H3         46.0126   14.9073  110.1766 H           1 LSW       0.1027
     40 H4         44.8760   15.6114  112.9145 H           1 LSW       0.0361
     41 H5         45.7230   16.8072  111.9369 H           1 LSW       0.0361
     42 H6         42.4020   19.7705  103.5457 H           1 LSW       0.1994
     43 H7         42.6314   20.4335  105.0585 H           1 LSW       0.1994
     44 H8         41.1414   19.7942  104.6400 H           1 LSW       0.1994
     45 H9         47.8943   16.6056  117.7864 H           1 LSW       0.0559
     46 H10        48.2233   14.3140  117.0638 H           1 LSW       0.0599
     47 H11        47.1864   18.2910  116.1881 H           1 LSW       0.0599
     48 H12        36.5760   12.0221  106.4888 H           1 LSW       0.0530
     49 H13        38.0718   13.6189  107.5450 H           1 LSW       0.0510
     50 H14        47.8513   13.6997  114.7639 H           1 LSW       0.0557
     51 H15        46.7981   17.6986  113.8921 H           1 LSW       0.0557
     52 H16        37.2336    9.6790  106.2888 H           1 LSW       0.0541
     53 H17        40.2329   12.9101  108.3760 H           1 LSW       0.0540
     54 H18        41.5409    8.0614  107.9040 H           1 LSW       0.0795
     55 H19        43.6706   18.3126  104.9394 H           1 LSW       0.0813
     56 H20        42.1281   17.6142  104.3870 H           1 LSW       0.0813
     57 H21        41.0791   17.9366  106.5083 H           1 LSW       0.0317
     58 H22        42.3354   19.0512  107.0777 H           1 LSW       0.0317
     59 H23        43.9687   17.2296  107.2763 H           1 LSW       0.0270
     60 H24        42.8367   16.0868  106.5231 H           1 LSW       0.0270
     61 H25        47.8041   15.6747  112.0576 H           1 LSW       0.0429
     62 H26        47.0724   14.1624  112.5706 H           1 LSW       0.0429
     63 H27        41.2760   16.2997  108.4251 H           1 LSW       0.0346
     64 H28        42.3381   17.4721  109.2131 H           1 LSW       0.0346
     65 H29        43.1311    9.8163  108.7377 H           1 LSW       0.0390
     66 H30        42.2544   10.9003  109.7913 H           1 LSW       0.0390
     67 H31        42.2775   13.0180  109.5052 H           1 LSW       0.1878
     68 H32        42.3159   15.0770  110.0908 H           1 LSW       0.1099
     69 H33        44.2283   11.6977  108.2241 H           1 LSW       0.0741
     70 H34        39.2811    7.9358  106.8772 H           1 LSW       0.2216
@<TRIPOS>BOND
     1     1     3  ar
     2     4     1   1
     3     1    35  ar
     4     2     4   1
     5    33     2   1
     6     4     5   1
     7     5    23   1
     8    20     6   1
     9    27     7  ar
    10    28     8   2
    11    27     9  ar
    12    11    10  ar
    13    12    10  ar
    14    15    11  ar
    15    16    12  ar
    16    14    13  ar
    17    13    17  ar
    18    18    14  ar
    19    29    15  ar
    20    29    16  ar
    21    17    31  ar
    22    32    18  ar
    23    30    19   2
    24    19    36   1
    25    21    20   1
    26    22    21   1
    27    24    22   1
    28    23    29   1
    29    33    24   1
    30    30    25   1
    31    25    34   1
    32    26    28  am
    33    34    26   1
    34    34    27   1
    35    28    33   1
    36    30    32   1
    37    31    32  ar
    38    31    36   1
    39     2    37   1
    40     2    38   1
    41     4    39   1
    42     5    40   1
    43     5    41   1
    44     6    42   1
    45     6    43   1
    46     6    44   1
    47    10    45   1
    48    11    46   1
    49    12    47   1
    50    13    48   1
    51    14    49   1
    52    15    50   1
    53    16    51   1
    54    17    52   1
    55    18    53   1
    56    19    54   1
    57    20    55   1
    58    20    56   1
    59    21    57   1
    60    21    58   1
    61    22    59   1
    62    22    60   1
    63    23    61   1
    64    23    62   1
    65    24    63   1
    66    24    64   1
    67    25    65   1
    68    25    66   1
    69    26    67   1
    70    33    68   1
    71    34    69   1
    72    36    70   1
@<TRIPOS>SUBSTRUCTURE
     1  LSW      1

