@<TRIPOS>MOLECULE
3l3n_ligand_017
    70    72
SMALL
GAST_HUCK
****
This file was generated by PARSER (from files_GN.cpp)

@<TRIPOS>ATOM
      1 C          44.9097   13.3774  110.0441 C.2         1 LSW       0.0847
      2 N          43.9893   15.5057  109.2431 N.4         1 LSW       0.2599
      3 O          46.2645   13.3942  109.9797 O.co2       1 LSW      -0.5643
      4 CA         44.1666   14.6055  110.4241 C.3         1 LSW       0.0340
      5 CB         42.9157   14.3026  111.3105 C.3         1 LSW       0.0122
      6 NAA        43.0141   19.4416  104.8557 N.4         1 LSW       0.2185
      7 OAC        41.1380   12.3235  105.3624 O.co2       1 LSW      -0.5665
      8 OAD        43.8275   13.5119  106.8303 O.2         1 LSW      -0.3908
      9 OAF        39.3947   11.6338  106.7410 O.co2       1 LSW      -0.5665
     10 CAG        38.8446   16.0360  114.2710 C.ar        1 LSW      -0.0687
     11 CAH        39.1804   14.7080  113.9477 C.ar        1 LSW      -0.0686
     12 CAI        39.5184   17.0981  113.6435 C.ar        1 LSW      -0.0686
     13 CAJ        44.7042    6.9150  108.9209 C.ar        1 LSW      -0.0768
     14 CAK        43.9332    7.3493  107.8202 C.ar        1 LSW      -0.0792
     15 CAL        40.1571   14.4480  112.9660 C.ar        1 LSW      -0.0603
     16 CAM        40.5028   16.8360  112.6762 C.ar        1 LSW      -0.0603
     17 CAN        44.6305    7.5856  110.1587 C.ar        1 LSW      -0.0443
     18 CAO        43.0562    8.4487  107.9497 C.ar        1 LSW      -0.0747
     19 CAP        42.5884   10.3994  110.9763 C.2         1 LSW       0.0166
     20 CAQ        41.8129   18.7006  105.2510 C.3         1 LSW      -0.0354
     21 CAR        41.7088   18.4781  106.7766 C.3         1 LSW      -0.0123
     22 CAS        42.9180   17.7695  107.4512 C.3         1 LSW      -0.0410
     23 CAT        41.6899   15.2641  111.1283 C.3         1 LSW      -0.0125
     24 CAU        43.2018   16.2996  107.0083 C.3         1 LSW       0.0081
     25 CAW        41.1690   10.8919  108.8748 C.3         1 LSW      -0.0013
     26 NAX        42.0531   13.0479  108.1159 N.am        1 LSW      -0.2657
     27 CBB        40.7191   11.8756  106.5706 C.2         1 LSW       0.0613
     28 CBC        42.9976   13.8669  107.6578 C.2         1 LSW       0.2263
     29 CBD        40.8286   15.5103  112.3132 C.ar        1 LSW      -0.0427
     30 CBE        42.2248   10.1936  109.6438 C.2         1 LSW      -0.0424
     31 CBF        43.7731    8.6935  110.2752 C.ar        1 LSW       0.0603
     32 CBG        42.9902    9.1169  109.1944 C.ar        1 LSW      -0.0214
     33 CBI        43.0117   15.2428  108.1425 C.3         1 LSW       0.0683
     34 CBJ        41.7107   11.7261  107.6680 C.3         1 LSW       0.0987
     35 OXT        44.2632   12.2419  109.6888 O.co2       1 LSW      -0.5643
     36 NXZ        43.5219    9.4956  111.3261 N.pl3       1 LSW      -0.2891
     37 H1         44.9073   15.6471  108.8069 H           1 LSW       0.2052
     38 H2         43.7266   16.4085  109.6388 H           1 LSW       0.2052
     39 H3         44.8408   15.1751  111.0724 H           1 LSW       0.1027
     40 H4         43.2389   14.3555  112.3618 H           1 LSW       0.0361
     41 H5         42.5803   13.2718  111.0999 H           1 LSW       0.0361
     42 H6         43.0752   19.4506  103.8347 H           1 LSW       0.1994
     43 H7         43.8390   18.9842  105.2446 H           1 LSW       0.1994
     44 H8         42.9649   20.4029  105.2017 H           1 LSW       0.1994
     45 H9         38.1181   16.2338  114.9626 H           1 LSW       0.0559
     46 H10        38.6810   13.9346  114.3951 H           1 LSW       0.0599
     47 H11        39.2636   18.0623  113.8593 H           1 LSW       0.0599
     48 H12        45.3299    6.1077  108.8121 H           1 LSW       0.0530
     49 H13        43.9961    6.8558  106.9258 H           1 LSW       0.0510
     50 H14        40.3415   13.4754  112.7053 H           1 LSW       0.0557
     51 H15        40.9325   17.6308  112.1931 H           1 LSW       0.0557
     52 H16        45.1642    7.2556  110.9643 H           1 LSW       0.0541
     53 H17        42.4857    8.7537  107.1592 H           1 LSW       0.0540
     54 H18        42.2017   11.1119  111.5990 H           1 LSW       0.0795
     55 H19        41.8212   17.7426  104.7333 H           1 LSW       0.0813
     56 H20        40.9466   19.2729  104.9192 H           1 LSW       0.0813
     57 H21        40.8198   17.8777  106.9726 H           1 LSW       0.0317
     58 H22        41.5665   19.4475  107.2635 H           1 LSW       0.0317
     59 H23        42.7222   17.7904  108.5197 H           1 LSW       0.0270
     60 H24        43.8264   18.3600  107.2804 H           1 LSW       0.0270
     61 H25        40.9860   14.8230  110.4325 H           1 LSW       0.0429
     62 H26        42.0255   16.2021  110.6779 H           1 LSW       0.0429
     63 H27        44.2159   16.2558  106.6249 H           1 LSW       0.0346
     64 H28        42.5504   16.0402  106.1698 H           1 LSW       0.0346
     65 H29        40.5919   11.5306  109.5528 H           1 LSW       0.0390
     66 H30        40.4902   10.1155  108.5123 H           1 LSW       0.0390
     67 H31        41.4559   13.4365  108.7793 H           1 LSW       0.1878
     68 H32        42.0303   15.4735  108.5076 H           1 LSW       0.1099
     69 H33        42.5919   11.2237  107.2530 H           1 LSW       0.0741
     70 H34        43.9574    9.4371  112.1933 H           1 LSW       0.2216
@<TRIPOS>BOND
     1     1     3  ar
     2     4     1   1
     3     1    35  ar
     4     2     4   1
     5    33     2   1
     6     4     5   1
     7     5    23   1
     8    20     6   1
     9    27     7  ar
    10    28     8   2
    11    27     9  ar
    12    11    10  ar
    13    12    10  ar
    14    15    11  ar
    15    16    12  ar
    16    14    13  ar
    17    13    17  ar
    18    18    14  ar
    19    29    15  ar
    20    29    16  ar
    21    17    31  ar
    22    32    18  ar
    23    30    19   2
    24    19    36   1
    25    21    20   1
    26    22    21   1
    27    24    22   1
    28    23    29   1
    29    33    24   1
    30    30    25   1
    31    25    34   1
    32    26    28  am
    33    34    26   1
    34    34    27   1
    35    28    33   1
    36    30    32   1
    37    31    32  ar
    38    31    36   1
    39     2    37   1
    40     2    38   1
    41     4    39   1
    42     5    40   1
    43     5    41   1
    44     6    42   1
    45     6    43   1
    46     6    44   1
    47    10    45   1
    48    11    46   1
    49    12    47   1
    50    13    48   1
    51    14    49   1
    52    15    50   1
    53    16    51   1
    54    17    52   1
    55    18    53   1
    56    19    54   1
    57    20    55   1
    58    20    56   1
    59    21    57   1
    60    21    58   1
    61    22    59   1
    62    22    60   1
    63    23    61   1
    64    23    62   1
    65    24    63   1
    66    24    64   1
    67    25    65   1
    68    25    66   1
    69    26    67   1
    70    33    68   1
    71    34    69   1
    72    36    70   1
@<TRIPOS>SUBSTRUCTURE
     1  LSW      1

