@<TRIPOS>MOLECULE
3l3n_ligand_037
    70    72
SMALL
GAST_HUCK
****
This file was generated by PARSER (from files_GN.cpp)

@<TRIPOS>ATOM
      1 C          43.6120   12.4969  110.3724 C.2         1 LSW       0.0847
      2 N          43.3503   14.8289  109.4696 N.4         1 LSW       0.2599
      3 O          44.3020   11.3304  110.3838 O.co2       1 LSW      -0.5643
      4 CA         44.2755   13.7439  109.9235 C.3         1 LSW       0.0340
      5 CB         45.2891   14.2706  110.9806 C.3         1 LSW       0.0122
      6 NAA        42.3272   19.5432  104.5436 N.4         1 LSW       0.2185
      7 OAC        42.7558   10.8655  104.6836 O.co2       1 LSW      -0.5665
      8 OAD        43.1840   13.6178  106.7503 O.2         1 LSW      -0.3908
      9 OAF        40.9110   12.2023  105.1352 O.co2       1 LSW      -0.5665
     10 CAG        47.1659   16.6760  115.3027 C.ar        1 LSW      -0.0687
     11 CAH        45.8014   16.4431  115.5317 C.ar        1 LSW      -0.0686
     12 CAI        47.7562   16.2283  114.1097 C.ar        1 LSW      -0.0686
     13 CAJ        37.3339   10.5131  103.7108 C.ar        1 LSW      -0.0768
     14 CAK        38.6720   10.1263  103.4959 C.ar        1 LSW      -0.0792
     15 CAL        45.0355   15.7564  114.5763 C.ar        1 LSW      -0.0603
     16 CAM        46.9795   15.5638  113.1410 C.ar        1 LSW      -0.0603
     17 CAN        36.8303   10.6535  105.0204 C.ar        1 LSW      -0.0443
     18 CAO        39.5305    9.8860  104.5931 C.ar        1 LSW      -0.0747
     19 CAP        38.6411   10.3094  108.0758 C.2         1 LSW       0.0166
     20 CAQ        42.6781   18.1757  104.9429 C.3         1 LSW      -0.0354
     21 CAR        42.0704   17.7998  106.3174 C.3         1 LSW      -0.0123
     22 CAS        42.3128   16.3071  106.6697 C.3         1 LSW      -0.0410
     23 CAT        44.6976   14.6493  112.3682 C.3         1 LSW      -0.0125
     24 CAU        41.6057   15.8300  107.9714 C.3         1 LSW       0.0081
     25 CAW        41.0950    9.8932  107.4658 C.3         1 LSW      -0.0013
     26 NAX        41.7931   12.2518  107.8246 N.am        1 LSW      -0.2657
     27 CBB        41.8835   11.3783  105.5813 C.2         1 LSW       0.0613
     28 CBC        42.3774   13.4341  107.6584 C.2         1 LSW       0.2263
     29 CBD        45.5970   15.3256  113.3520 C.ar        1 LSW      -0.0427
     30 CBE        39.6521   10.0600  107.1474 C.2         1 LSW      -0.0424
     31 CBF        37.7019   10.4434  106.1044 C.ar        1 LSW       0.0603
     32 CBG        39.0442   10.0985  105.8963 C.ar        1 LSW      -0.0214
     33 CBI        42.1578   14.5166  108.6213 C.3         1 LSW       0.0683
     34 CBJ        42.0111   11.0751  107.0248 C.3         1 LSW       0.0987
     35 OXT        42.3545   12.5013  110.8633 O.co2       1 LSW      -0.5643
     36 NXZ        37.4866   10.5452  107.4201 N.pl3       1 LSW      -0.2891
     37 H1         43.9247   15.4962  108.9517 H           1 LSW       0.2052
     38 H2         43.0033   15.3130  110.3018 H           1 LSW       0.2052
     39 H3         44.8820   13.4831  109.0525 H           1 LSW       0.1027
     40 H4         45.7809   15.1536  110.5593 H           1 LSW       0.0361
     41 H5         46.0563   13.5026  111.1281 H           1 LSW       0.0361
     42 H6         42.6180   19.6875  103.5763 H           1 LSW       0.1994
     43 H7         42.7991   20.2264  105.1405 H           1 LSW       0.1994
     44 H8         41.3164   19.6717  104.6118 H           1 LSW       0.1994
     45 H9         47.7271   17.1685  115.9991 H           1 LSW       0.0559
     46 H10        45.3701   16.7736  116.3965 H           1 LSW       0.0599
     47 H11        48.7475   16.4001  113.9440 H           1 LSW       0.0599
     48 H12        36.7232   10.6940  102.9091 H           1 LSW       0.0530
     49 H13        39.0294   10.0203  102.5459 H           1 LSW       0.0510
     50 H14        44.0472   15.5887  114.7733 H           1 LSW       0.0557
     51 H15        47.4410   15.2626  112.2822 H           1 LSW       0.0557
     52 H16        35.8602   10.9310  105.1817 H           1 LSW       0.0541
     53 H17        40.4949    9.5916  104.4345 H           1 LSW       0.0540
     54 H18        38.7559   10.3487  109.0869 H           1 LSW       0.0795
     55 H19        43.7666   18.0870  104.9713 H           1 LSW       0.0813
     56 H20        42.2964   17.4944  104.1795 H           1 LSW       0.0813
     57 H21        40.9956   17.9995  106.2938 H           1 LSW       0.0317
     58 H22        42.5178   18.4263  107.0947 H           1 LSW       0.0317
     59 H23        43.3910   16.1444  106.7552 H           1 LSW       0.0270
     60 H24        41.9404   15.6911  105.8459 H           1 LSW       0.0270
     61 H25        44.3172   13.7437  112.8441 H           1 LSW       0.0429
     62 H26        43.8424   15.3021  112.1908 H           1 LSW       0.0429
     63 H27        40.5465   15.6841  107.7405 H           1 LSW       0.0346
     64 H28        41.6615   16.6275  108.7166 H           1 LSW       0.0346
     65 H29        41.4493    8.9655  107.0107 H           1 LSW       0.0390
     66 H30        41.2057    9.7728  108.5461 H           1 LSW       0.0390
     67 H31        41.1754   12.1664  108.5687 H           1 LSW       0.1878
     68 H32        41.3836   14.1925  109.3273 H           1 LSW       0.1099
     69 H33        43.0413   10.7587  107.2157 H           1 LSW       0.0741
     70 H34        36.6441   10.7855  107.8401 H           1 LSW       0.2216
@<TRIPOS>BOND
     1     1     3  ar
     2     4     1   1
     3     1    35  ar
     4     2     4   1
     5    33     2   1
     6     4     5   1
     7     5    23   1
     8    20     6   1
     9    27     7  ar
    10    28     8   2
    11    27     9  ar
    12    11    10  ar
    13    12    10  ar
    14    15    11  ar
    15    16    12  ar
    16    14    13  ar
    17    13    17  ar
    18    18    14  ar
    19    29    15  ar
    20    29    16  ar
    21    17    31  ar
    22    32    18  ar
    23    30    19   2
    24    19    36   1
    25    21    20   1
    26    22    21   1
    27    24    22   1
    28    23    29   1
    29    33    24   1
    30    30    25   1
    31    25    34   1
    32    26    28  am
    33    34    26   1
    34    34    27   1
    35    28    33   1
    36    30    32   1
    37    31    32  ar
    38    31    36   1
    39     2    37   1
    40     2    38   1
    41     4    39   1
    42     5    40   1
    43     5    41   1
    44     6    42   1
    45     6    43   1
    46     6    44   1
    47    10    45   1
    48    11    46   1
    49    12    47   1
    50    13    48   1
    51    14    49   1
    52    15    50   1
    53    16    51   1
    54    17    52   1
    55    18    53   1
    56    19    54   1
    57    20    55   1
    58    20    56   1
    59    21    57   1
    60    21    58   1
    61    22    59   1
    62    22    60   1
    63    23    61   1
    64    23    62   1
    65    24    63   1
    66    24    64   1
    67    25    65   1
    68    25    66   1
    69    26    67   1
    70    33    68   1
    71    34    69   1
    72    36    70   1
@<TRIPOS>SUBSTRUCTURE
     1  LSW      1

