@<TRIPOS>MOLECULE
3l3n_ligand_051
    70    72
SMALL
GAST_HUCK
****
This file was generated by PARSER (from files_GN.cpp)

@<TRIPOS>ATOM
      1 C          47.0052   13.6254  111.0057 C.2         1 LSW       0.0847
      2 N          44.9240   14.4608  112.1032 N.4         1 LSW       0.2599
      3 O          46.4428   12.9509  109.9761 O.co2       1 LSW      -0.5643
      4 CA         46.2830   14.8021  111.5846 C.3         1 LSW       0.0340
      5 CB         47.0952   15.4548  112.7539 C.3         1 LSW       0.0122
      6 NAA        40.5903   15.6393  115.0993 N.4         1 LSW       0.2185
      7 OAC        41.7590   18.9685  110.6871 O.co2       1 LSW      -0.5665
      8 OAD        43.3608   14.2707  109.0603 O.2         1 LSW      -0.3908
      9 OAF        40.6846   17.2555  111.8282 O.co2       1 LSW      -0.5665
     10 CAG        48.1344   17.6313  117.3684 C.ar        1 LSW      -0.0687
     11 CAH        47.7761   16.2942  117.1055 C.ar        1 LSW      -0.0686
     12 CAI        47.9394   18.6156  116.3835 C.ar        1 LSW      -0.0686
     13 CAJ        42.3431   19.1616  104.9402 C.ar        1 LSW      -0.0768
     14 CAK        41.9096   19.5683  106.2217 C.ar        1 LSW      -0.0792
     15 CAL        47.2282   15.9494  115.8558 C.ar        1 LSW      -0.0603
     16 CAM        47.3743   18.2687  115.1413 C.ar        1 LSW      -0.0603
     17 CAN        42.3135   17.7948  104.5776 C.ar        1 LSW      -0.0443
     18 CAO        41.4759   18.6122  107.1633 C.ar        1 LSW      -0.0747
     19 CAP        41.3086   15.0356  106.6178 C.2         1 LSW       0.0166
     20 CAQ        39.7901   15.0365  114.0196 C.3         1 LSW      -0.0354
     21 CAR        40.5314   13.9126  113.2536 C.3         1 LSW      -0.0123
     22 CAS        42.0717   14.1069  113.1786 C.3         1 LSW      -0.0410
     23 CAT        46.3497   16.5528  113.5723 C.3         1 LSW      -0.0125
     24 CAU        42.7977   13.1349  112.1853 C.3         1 LSW       0.0081
     25 CAW        40.8424   16.0363  108.9481 C.3         1 LSW      -0.0013
     26 NAX        42.7309   15.7478  110.5942 N.am        1 LSW      -0.2657
     27 CBB        41.4338   17.6595  110.7720 C.2         1 LSW       0.0613
     28 CBC        43.3319   14.6213  110.2340 C.2         1 LSW       0.2263
     29 CBD        47.0182   16.9280  114.8516 C.ar        1 LSW      -0.0427
     30 CBE        41.1552   16.0988  107.5079 C.2         1 LSW      -0.0424
     31 CBF        41.8485   16.8543  105.5143 C.ar        1 LSW       0.0603
     32 CBG        41.4654   17.2538  106.7921 C.ar        1 LSW      -0.0214
     33 CBI        43.9072   13.7565  111.2661 C.3         1 LSW       0.0683
     34 CBJ        41.9846   16.6798  109.8120 C.3         1 LSW       0.0987
     35 OXT        48.2882   13.3102  111.3139 O.co2       1 LSW      -0.5643
     36 NXZ        41.7104   15.5190  105.4302 N.pl3       1 LSW      -0.2891
     37 H1         44.4891   15.3459  112.3838 H           1 LSW       0.2052
     38 H2         45.0693   13.9055  112.9415 H           1 LSW       0.2052
     39 H3         46.1695   15.5580  110.7960 H           1 LSW       0.1027
     40 H4         47.9983   15.9166  112.3333 H           1 LSW       0.0361
     41 H5         47.4177   14.6619  113.4390 H           1 LSW       0.0361
     42 H6         39.9920   16.2770  115.6363 H           1 LSW       0.1994
     43 H7         41.3747   16.1706  114.6969 H           1 LSW       0.1994
     44 H8         40.9468   14.9046  115.7203 H           1 LSW       0.1994
     45 H9         48.5280   17.8832  118.2764 H           1 LSW       0.0559
     46 H10        47.8916   15.5814  117.8245 H           1 LSW       0.0599
     47 H11        48.1908   19.5880  116.5779 H           1 LSW       0.0599
     48 H12        42.6732   19.8581  104.2757 H           1 LSW       0.0530
     49 H13        41.9186   20.5546  106.4747 H           1 LSW       0.0510
     50 H14        46.9585   14.9765  115.6930 H           1 LSW       0.0557
     51 H15        47.2098   19.0050  114.4526 H           1 LSW       0.0557
     52 H16        42.6313   17.4933  103.6562 H           1 LSW       0.0541
     53 H17        41.1808   18.9067  108.0957 H           1 LSW       0.0540
     54 H18        41.1637   14.0495  106.8309 H           1 LSW       0.0795
     55 H19        39.5091   15.8337  113.3250 H           1 LSW       0.0813
     56 H20        38.8759   14.6282  114.4568 H           1 LSW       0.0813
     57 H21        40.1116   13.8872  112.2397 H           1 LSW       0.0317
     58 H22        40.3206   12.9483  113.7287 H           1 LSW       0.0317
     59 H23        42.5010   13.9607  114.1792 H           1 LSW       0.0270
     60 H24        42.2569   15.1499  112.9190 H           1 LSW       0.0270
     61 H25        45.3516   16.2095  113.8425 H           1 LSW       0.0429
     62 H26        46.2276   17.4305  112.9311 H           1 LSW       0.0429
     63 H27        42.0698   12.6404  111.5365 H           1 LSW       0.0346
     64 H28        43.2626   12.3479  112.7871 H           1 LSW       0.0346
     65 H29        40.6797   14.9966  109.2459 H           1 LSW       0.0390
     66 H30        39.8836   16.5507  109.0837 H           1 LSW       0.0390
     67 H31        42.8397   15.9964  111.5193 H           1 LSW       0.1878
     68 H32        44.3968   12.9032  110.7827 H           1 LSW       0.1099
     69 H33        42.7172   17.2051  109.1832 H           1 LSW       0.0741
     70 H34        41.8833   14.9775  104.6421 H           1 LSW       0.2216
@<TRIPOS>BOND
     1     1     3  ar
     2     4     1   1
     3     1    35  ar
     4     2     4   1
     5    33     2   1
     6     4     5   1
     7     5    23   1
     8    20     6   1
     9    27     7  ar
    10    28     8   2
    11    27     9  ar
    12    11    10  ar
    13    12    10  ar
    14    15    11  ar
    15    16    12  ar
    16    14    13  ar
    17    13    17  ar
    18    18    14  ar
    19    29    15  ar
    20    29    16  ar
    21    17    31  ar
    22    32    18  ar
    23    30    19   2
    24    19    36   1
    25    21    20   1
    26    22    21   1
    27    24    22   1
    28    23    29   1
    29    33    24   1
    30    30    25   1
    31    25    34   1
    32    26    28  am
    33    34    26   1
    34    34    27   1
    35    28    33   1
    36    30    32   1
    37    31    32  ar
    38    31    36   1
    39     2    37   1
    40     2    38   1
    41     4    39   1
    42     5    40   1
    43     5    41   1
    44     6    42   1
    45     6    43   1
    46     6    44   1
    47    10    45   1
    48    11    46   1
    49    12    47   1
    50    13    48   1
    51    14    49   1
    52    15    50   1
    53    16    51   1
    54    17    52   1
    55    18    53   1
    56    19    54   1
    57    20    55   1
    58    20    56   1
    59    21    57   1
    60    21    58   1
    61    22    59   1
    62    22    60   1
    63    23    61   1
    64    23    62   1
    65    24    63   1
    66    24    64   1
    67    25    65   1
    68    25    66   1
    69    26    67   1
    70    33    68   1
    71    34    69   1
    72    36    70   1
@<TRIPOS>SUBSTRUCTURE
     1  LSW      1

