@<TRIPOS>MOLECULE
3l3n_ligand_057
    70    72
SMALL
GAST_HUCK
****
This file was generated by PARSER (from files_GN.cpp)

@<TRIPOS>ATOM
      1 C          44.3554    9.5456  109.5475 C.2         1 LSW       0.0847
      2 N          44.1827   11.8600  108.8959 N.4         1 LSW       0.2599
      3 O          44.2203    8.8773  110.7138 O.co2       1 LSW      -0.5643
      4 CA         43.4009   10.6108  109.1655 C.3         1 LSW       0.0340
      5 CB         42.5352   10.2183  107.9204 C.3         1 LSW       0.0122
      6 NAA        45.6045   17.1944  110.8658 N.4         1 LSW       0.2185
      7 OAC        45.6853   17.1220  107.8581 O.co2       1 LSW      -0.5665
      8 OAD        44.1590   13.8338  107.0282 O.2         1 LSW      -0.3908
      9 OAF        44.9111   17.2471  105.6900 O.co2       1 LSW      -0.5665
     10 CAG        41.1193    5.3774  109.1554 C.ar        1 LSW      -0.0687
     11 CAH        40.7341    5.8089  107.8749 C.ar        1 LSW      -0.0686
     12 CAI        41.4914    6.3206  110.1315 C.ar        1 LSW      -0.0686
     13 CAJ        38.0334   15.2513  109.5604 C.ar        1 LSW      -0.0768
     14 CAK        39.3360   14.7952  109.8558 C.ar        1 LSW      -0.0792
     15 CAL        40.7535    7.1802  107.5598 C.ar        1 LSW      -0.0603
     16 CAM        41.4784    7.6948  109.8232 C.ar        1 LSW      -0.0603
     17 CAN        37.8452   16.5125  108.9633 C.ar        1 LSW      -0.0443
     18 CAO        40.4574   15.5859  109.5205 C.ar        1 LSW      -0.0747
     19 CAP        40.3443   18.7481  107.7634 C.2         1 LSW       0.0166
     20 CAQ        46.2907   16.3306  111.8349 C.3         1 LSW      -0.0354
     21 CAR        45.5221   15.0119  112.1008 C.3         1 LSW      -0.0123
     22 CAS        45.3519   14.0833  110.8570 C.3         1 LSW      -0.0410
     23 CAT        41.1338    9.5980  108.2037 C.3         1 LSW      -0.0125
     24 CAU        43.8858   13.6022  110.6352 C.3         1 LSW       0.0081
     25 CAW        42.6518   17.7500  108.1818 C.3         1 LSW      -0.0013
     26 NAX        43.3746   15.4277  108.3385 N.am        1 LSW      -0.2657
     27 CBB        44.6909   16.8924  106.9770 C.2         1 LSW       0.0613
     28 CBC        43.7547   14.1770  108.1287 C.2         1 LSW       0.2263
     29 CBD        41.1381    8.1417  108.5258 C.ar        1 LSW      -0.0427
     30 CBE        41.1622   17.7301  108.2678 C.2         1 LSW      -0.0424
     31 CBF        38.9788   17.2530  108.5838 C.ar        1 LSW       0.0603
     32 CBG        40.2790   16.7964  108.8229 C.ar        1 LSW      -0.0214
     33 CBI        43.5172   13.1669  109.1752 C.3         1 LSW       0.0683
     34 CBJ        43.3223   16.5464  107.4424 C.3         1 LSW       0.0987
     35 OXT        45.5235    9.4046  108.8801 O.co2       1 LSW      -0.5643
     36 NXZ        39.0503   18.4380  107.9582 N.pl3       1 LSW      -0.2891
     37 H1         44.4625   11.8422  107.9157 H           1 LSW       0.2052
     38 H2         45.0399   11.8311  109.4528 H           1 LSW       0.2052
     39 H3         42.7425   10.7791  110.0244 H           1 LSW       0.1027
     40 H4         43.0945    9.5504  107.2590 H           1 LSW       0.0361
     41 H5         42.3498   11.1266  107.3413 H           1 LSW       0.0361
     42 H6         46.1029   18.0824  110.7794 H           1 LSW       0.1994
     43 H7         44.6521   17.3728  111.1841 H           1 LSW       0.1994
     44 H8         45.5770   16.7346  109.9560 H           1 LSW       0.1994
     45 H9         41.1125    4.3799  109.3845 H           1 LSW       0.0559
     46 H10        40.4363    5.1246  107.1772 H           1 LSW       0.0599
     47 H11        41.7535    6.0079  111.0681 H           1 LSW       0.0599
     48 H12        37.2281   14.6743  109.8050 H           1 LSW       0.0530
     49 H13        39.4712   13.8979  110.3191 H           1 LSW       0.0510
     50 H14        40.4755    7.4697  106.6182 H           1 LSW       0.0557
     51 H15        41.7036    8.3656  110.5590 H           1 LSW       0.0557
     52 H16        36.9051   16.8729  108.7861 H           1 LSW       0.0541
     53 H17        41.3797   15.2790  109.7967 H           1 LSW       0.0540
     54 H18        40.6670   19.6023  107.3080 H           1 LSW       0.0795
     55 H19        46.3806   16.8897  112.7695 H           1 LSW       0.0813
     56 H20        47.2922   16.1082  111.4649 H           1 LSW       0.0813
     57 H21        44.5501   15.2882  112.5175 H           1 LSW       0.0317
     58 H22        46.0526   14.4608  112.8793 H           1 LSW       0.0317
     59 H23        46.0012   13.2103  110.9615 H           1 LSW       0.0270
     60 H24        45.6928   14.6112  109.9706 H           1 LSW       0.0270
     61 H25        40.5188    9.7613  107.3129 H           1 LSW       0.0429
     62 H26        40.6386   10.1478  109.0082 H           1 LSW       0.0429
     63 H27        43.2033   14.3960  110.9323 H           1 LSW       0.0346
     64 H28        43.6941   12.7718  111.3212 H           1 LSW       0.0346
     65 H29        43.0518   17.8320  109.1965 H           1 LSW       0.0390
     66 H30        42.9385   18.6656  107.6609 H           1 LSW       0.0390
     67 H31        43.0862   15.6253  109.2364 H           1 LSW       0.1878
     68 H32        42.4324   13.0205  109.1526 H           1 LSW       0.1099
     69 H33        42.7144   16.2940  106.5685 H           1 LSW       0.0741
     70 H34        38.2930   18.9743  107.6720 H           1 LSW       0.2216
@<TRIPOS>BOND
     1     1     3  ar
     2     4     1   1
     3     1    35  ar
     4     2     4   1
     5    33     2   1
     6     4     5   1
     7     5    23   1
     8    20     6   1
     9    27     7  ar
    10    28     8   2
    11    27     9  ar
    12    11    10  ar
    13    12    10  ar
    14    15    11  ar
    15    16    12  ar
    16    14    13  ar
    17    13    17  ar
    18    18    14  ar
    19    29    15  ar
    20    29    16  ar
    21    17    31  ar
    22    32    18  ar
    23    30    19   2
    24    19    36   1
    25    21    20   1
    26    22    21   1
    27    24    22   1
    28    23    29   1
    29    33    24   1
    30    30    25   1
    31    25    34   1
    32    26    28  am
    33    34    26   1
    34    34    27   1
    35    28    33   1
    36    30    32   1
    37    31    32  ar
    38    31    36   1
    39     2    37   1
    40     2    38   1
    41     4    39   1
    42     5    40   1
    43     5    41   1
    44     6    42   1
    45     6    43   1
    46     6    44   1
    47    10    45   1
    48    11    46   1
    49    12    47   1
    50    13    48   1
    51    14    49   1
    52    15    50   1
    53    16    51   1
    54    17    52   1
    55    18    53   1
    56    19    54   1
    57    20    55   1
    58    20    56   1
    59    21    57   1
    60    21    58   1
    61    22    59   1
    62    22    60   1
    63    23    61   1
    64    23    62   1
    65    24    63   1
    66    24    64   1
    67    25    65   1
    68    25    66   1
    69    26    67   1
    70    33    68   1
    71    34    69   1
    72    36    70   1
@<TRIPOS>SUBSTRUCTURE
     1  LSW      1

