@<TRIPOS>MOLECULE
3l3n_ligand_033
    70    72
SMALL
GAST_HUCK
****
This file was generated by PARSER (from files_GN.cpp)

@<TRIPOS>ATOM
      1 C          42.9430   12.7399  110.2239 C.2         1 LSW       0.0847
      2 N          42.5460   15.1964  110.5251 N.4         1 LSW       0.2599
      3 O          42.3246   12.5279  109.0401 O.co2       1 LSW      -0.5643
      4 CA         42.4973   13.8272  111.1246 C.3         1 LSW       0.0340
      5 CB         41.0232   13.5656  111.5852 C.3         1 LSW       0.0122
      6 NAA        42.2513   19.6291  104.6220 N.4         1 LSW       0.2185
      7 OAC        46.7147   12.8110  110.2360 O.co2       1 LSW      -0.5665
      8 OAD        45.5312   16.8840  109.8116 O.2         1 LSW      -0.3908
      9 OAF        48.6374   13.4188  111.3545 O.co2       1 LSW      -0.5665
     10 CAG        41.4851    8.3924  112.7464 C.ar        1 LSW      -0.0687
     11 CAH        40.6143    8.9921  111.8196 C.ar        1 LSW      -0.0686
     12 CAI        42.1967    9.1945  113.6572 C.ar        1 LSW      -0.0686
     13 CAJ        48.0219   17.1996  117.7121 C.ar        1 LSW      -0.0768
     14 CAK        47.9532   15.8185  117.4279 C.ar        1 LSW      -0.0792
     15 CAL        40.4470   10.3889  111.8068 C.ar        1 LSW      -0.0603
     16 CAM        42.0257   10.5912  113.6474 C.ar        1 LSW      -0.0603
     17 CAN        47.6744   18.1444  116.7207 C.ar        1 LSW      -0.0443
     18 CAO        47.5578   15.3632  116.1567 C.ar        1 LSW      -0.0747
     19 CAP        46.5572   17.4773  113.3997 C.2         1 LSW       0.0166
     20 CAQ        42.6878   18.2925  105.0576 C.3         1 LSW      -0.0354
     21 CAR        42.3379   18.0528  106.5473 C.3         1 LSW      -0.0123
     22 CAS        43.3294   17.1094  107.3004 C.3         1 LSW      -0.0410
     23 CAT        40.8384   12.6707  112.8405 C.3         1 LSW      -0.0125
     24 CAU        42.9065   16.8711  108.7784 C.3         1 LSW       0.0081
     25 CAW        46.5818   14.8927  113.1263 C.3         1 LSW      -0.0013
     26 NAX        45.3786   14.9950  110.9603 N.am        1 LSW      -0.2657
     27 CBB        47.3556   13.7041  111.0290 C.2         1 LSW       0.0613
     28 CBC        44.8711   15.8955  110.1232 C.2         1 LSW       0.2263
     29 CBD        41.1372   11.2122  112.7351 C.ar        1 LSW      -0.0427
     30 CBE        46.7772   16.1730  113.8563 C.2         1 LSW      -0.0424
     31 CBF        47.2631   17.6778  115.4630 C.ar        1 LSW       0.0603
     32 CBG        47.2074   16.3125  115.1753 C.ar        1 LSW      -0.0214
     33 CBI        43.5578   15.6442  109.5144 C.3         1 LSW       0.0683
     34 CBJ        46.6881   14.9262  111.5637 C.3         1 LSW       0.0987
     35 OXT        43.9300   11.8938  110.6009 O.co2       1 LSW      -0.5643
     36 NXZ        46.8720   18.3494  114.3713 N.pl3       1 LSW      -0.2891
     37 H1         42.6012   15.8655  111.3005 H           1 LSW       0.2052
     38 H2         41.6307   15.3154  110.0795 H           1 LSW       0.2052
     39 H3         43.1290   13.8384  112.0204 H           1 LSW       0.1027
     40 H4         40.4284   13.1676  110.7569 H           1 LSW       0.0361
     41 H5         40.5717   14.5303  111.8437 H           1 LSW       0.0361
     42 H6         42.4350   19.7378  103.6247 H           1 LSW       0.1994
     43 H7         42.7647   20.3488  105.1352 H           1 LSW       0.1994
     44 H8         41.2480   19.7407  104.7925 H           1 LSW       0.1994
     45 H9         41.5909    7.3778  112.7677 H           1 LSW       0.0559
     46 H10        40.0880    8.4082  111.1646 H           1 LSW       0.0599
     47 H11        42.8238    8.7609  114.3386 H           1 LSW       0.0599
     48 H12        48.3175   17.5149  118.6370 H           1 LSW       0.0530
     49 H13        48.1900   15.1349  118.1521 H           1 LSW       0.0510
     50 H14        39.7908   10.8009  111.1420 H           1 LSW       0.0557
     51 H15        42.5285   11.1481  114.3415 H           1 LSW       0.0557
     52 H16        47.7208   19.1435  116.9230 H           1 LSW       0.0541
     53 H17        47.5247   14.3634  115.9523 H           1 LSW       0.0540
     54 H18        46.2118   17.7373  112.4763 H           1 LSW       0.0795
     55 H19        43.7688   18.2091  104.9057 H           1 LSW       0.0813
     56 H20        42.1911   17.5487  104.4316 H           1 LSW       0.0813
     57 H21        41.3273   17.6342  106.5916 H           1 LSW       0.0317
     58 H22        42.3186   19.0218  107.0552 H           1 LSW       0.0317
     59 H23        44.3313   17.5458  107.2747 H           1 LSW       0.0270
     60 H24        43.3616   16.1435  106.7818 H           1 LSW       0.0270
     61 H25        39.7947   12.7622  113.1555 H           1 LSW       0.0429
     62 H26        41.4275   13.1212  113.6428 H           1 LSW       0.0429
     63 H27        41.8198   16.7211  108.7452 H           1 LSW       0.0346
     64 H28        43.0824   17.7829  109.3603 H           1 LSW       0.0346
     65 H29        45.6088   14.4894  113.4238 H           1 LSW       0.0390
     66 H30        47.3332   14.1982  113.5156 H           1 LSW       0.0390
     67 H31        44.8107   14.2273  111.1390 H           1 LSW       0.1878
     68 H32        43.6870   14.8556  108.7657 H           1 LSW       0.1099
     69 H33        47.3090   15.7788  111.2578 H           1 LSW       0.0741
     70 H34        46.8153   19.3140  114.3000 H           1 LSW       0.2216
@<TRIPOS>BOND
     1     1     3  ar
     2     4     1   1
     3     1    35  ar
     4     2     4   1
     5    33     2   1
     6     4     5   1
     7     5    23   1
     8    20     6   1
     9    27     7  ar
    10    28     8   2
    11    27     9  ar
    12    11    10  ar
    13    12    10  ar
    14    15    11  ar
    15    16    12  ar
    16    14    13  ar
    17    13    17  ar
    18    18    14  ar
    19    29    15  ar
    20    29    16  ar
    21    17    31  ar
    22    32    18  ar
    23    30    19   2
    24    19    36   1
    25    21    20   1
    26    22    21   1
    27    24    22   1
    28    23    29   1
    29    33    24   1
    30    30    25   1
    31    25    34   1
    32    26    28  am
    33    34    26   1
    34    34    27   1
    35    28    33   1
    36    30    32   1
    37    31    32  ar
    38    31    36   1
    39     2    37   1
    40     2    38   1
    41     4    39   1
    42     5    40   1
    43     5    41   1
    44     6    42   1
    45     6    43   1
    46     6    44   1
    47    10    45   1
    48    11    46   1
    49    12    47   1
    50    13    48   1
    51    14    49   1
    52    15    50   1
    53    16    51   1
    54    17    52   1
    55    18    53   1
    56    19    54   1
    57    20    55   1
    58    20    56   1
    59    21    57   1
    60    21    58   1
    61    22    59   1
    62    22    60   1
    63    23    61   1
    64    23    62   1
    65    24    63   1
    66    24    64   1
    67    25    65   1
    68    25    66   1
    69    26    67   1
    70    33    68   1
    71    34    69   1
    72    36    70   1
@<TRIPOS>SUBSTRUCTURE
     1  LSW      1

