@<TRIPOS>MOLECULE
3l3n_ligand_078
    70    72
SMALL
GAST_HUCK
****
This file was generated by PARSER (from files_GN.cpp)

@<TRIPOS>ATOM
      1 C          44.1329   12.7951  107.6391 C.2         1 LSW       0.0847
      2 N          42.6289   14.6275  107.9696 N.4         1 LSW       0.2599
      3 O          44.2997   12.8796  106.2984 O.co2       1 LSW      -0.5643
      4 CA         43.9210   14.0354  108.4133 C.3         1 LSW       0.0340
      5 CB         43.9628   13.8478  109.9725 C.3         1 LSW       0.0122
      6 NAA        44.2104   20.0981  104.5661 N.4         1 LSW       0.2185
      7 OAC        38.5421   20.5374  109.2393 O.co2       1 LSW      -0.5665
      8 OAD        40.1602   15.6110  108.1760 O.2         1 LSW      -0.3908
      9 OAF        40.7523   20.1546  109.7864 O.co2       1 LSW      -0.5665
     10 CAG        45.9048   15.7576  114.4284 C.ar        1 LSW      -0.0687
     11 CAH        44.6556   15.2184  114.0814 C.ar        1 LSW      -0.0686
     12 CAI        46.9945   15.6073  113.5537 C.ar        1 LSW      -0.0686
     13 CAJ        40.4752   17.9827  114.5129 C.ar        1 LSW      -0.0768
     14 CAK        39.8410   18.9944  113.7555 C.ar        1 LSW      -0.0792
     15 CAL        44.4960   14.5349  112.8599 C.ar        1 LSW      -0.0603
     16 CAM        46.8265   14.9510  112.3187 C.ar        1 LSW      -0.0603
     17 CAN        40.5799   16.6725  114.0079 C.ar        1 LSW      -0.0443
     18 CAO        39.3135   18.7045  112.4834 C.ar        1 LSW      -0.0747
     19 CAP        39.4496   15.4734  110.8531 C.2         1 LSW       0.0166
     20 CAQ        42.9038   19.4503  104.7043 C.3         1 LSW      -0.0354
     21 CAR        43.0117   17.9004  104.6131 C.3         1 LSW      -0.0123
     22 CAS        42.2348   17.1401  105.7258 C.3         1 LSW      -0.0410
     23 CAT        45.3933   13.7592  110.6025 C.3         1 LSW      -0.0125
     24 CAU        43.0906   16.9389  107.0065 C.3         1 LSW       0.0081
     25 CAW        38.4407   17.4574  109.5841 C.3         1 LSW      -0.0013
     26 NAX        40.7538   17.7067  108.6327 N.am        1 LSW      -0.2657
     27 CBB        39.5929   19.6897  109.2643 C.2         1 LSW       0.0613
     28 CBC        41.0395   16.4457  108.3415 C.2         1 LSW       0.2263
     29 CBD        45.5646   14.4256  111.9351 C.ar        1 LSW      -0.0427
     30 CBE        39.0574   16.8133  110.7664 C.2         1 LSW      -0.0424
     31 CBF        40.0548   16.4021  112.7355 C.ar        1 LSW       0.0603
     32 CBG        39.4411   17.3981  111.9730 C.ar        1 LSW      -0.0214
     33 CBI        42.4384   16.0965  108.1489 C.3         1 LSW       0.0683
     34 CBJ        39.4527   18.3075  108.7448 C.3         1 LSW       0.0987
     35 OXT        44.0879   11.5621  108.1936 O.co2       1 LSW      -0.5643
     36 NXZ        40.0383   15.2526  112.0444 N.pl3       1 LSW      -0.2891
     37 H1         41.8832   14.1362  108.4713 H           1 LSW       0.2052
     38 H2         42.4977   14.4299  106.9756 H           1 LSW       0.2052
     39 H3         44.7289   14.7132  108.1284 H           1 LSW       0.1027
     40 H4         43.3884   12.9607  110.2496 H           1 LSW       0.0361
     41 H5         43.4473   14.6906  110.4284 H           1 LSW       0.0361
     42 H6         44.0712   21.1076  104.5862 H           1 LSW       0.1994
     43 H7         44.6467   19.8257  103.6816 H           1 LSW       0.1994
     44 H8         44.8123   19.8301  105.3468 H           1 LSW       0.1994
     45 H9         46.0212   16.2492  115.3164 H           1 LSW       0.0559
     46 H10        43.8601   15.3198  114.7163 H           1 LSW       0.0599
     47 H11        47.9123   15.9814  113.8146 H           1 LSW       0.0599
     48 H12        40.8529   18.1995  115.4390 H           1 LSW       0.0530
     49 H13        39.7586   19.9377  114.1393 H           1 LSW       0.0510
     50 H14        43.5801   14.1325  112.6483 H           1 LSW       0.0557
     51 H15        47.6381   14.8549  111.7017 H           1 LSW       0.0557
     52 H16        41.0247   15.9310  114.5555 H           1 LSW       0.0541
     53 H17        38.8333   19.4312  111.9551 H           1 LSW       0.0540
     54 H18        39.3348   14.7642  110.1282 H           1 LSW       0.0795
     55 H19        42.2474   19.8260  103.9181 H           1 LSW       0.0813
     56 H20        42.4855   19.7719  105.6592 H           1 LSW       0.0813
     57 H21        44.0599   17.5935  104.6458 H           1 LSW       0.0317
     58 H22        42.6261   17.5759  103.6457 H           1 LSW       0.0317
     59 H23        41.9325   16.1579  105.3498 H           1 LSW       0.0270
     60 H24        41.3210   17.6924  105.9547 H           1 LSW       0.0270
     61 H25        46.1105   14.1995  109.9054 H           1 LSW       0.0429
     62 H26        45.6682   12.7073  110.7087 H           1 LSW       0.0429
     63 H27        43.3351   17.9223  107.4162 H           1 LSW       0.0346
     64 H28        44.0360   16.4734  106.7232 H           1 LSW       0.0346
     65 H29        37.5870   18.0700  109.9056 H           1 LSW       0.0390
     66 H30        38.0226   16.6827  108.9391 H           1 LSW       0.0390
     67 H31        41.5224   18.2923  108.7534 H           1 LSW       0.1878
     68 H32        42.9527   16.3929  109.0651 H           1 LSW       0.1099
     69 H33        39.0563   18.4012  107.7306 H           1 LSW       0.0741
     70 H34        40.4052   14.4062  112.3486 H           1 LSW       0.2216
@<TRIPOS>BOND
     1     1     3  ar
     2     4     1   1
     3     1    35  ar
     4     2     4   1
     5    33     2   1
     6     4     5   1
     7     5    23   1
     8    20     6   1
     9    27     7  ar
    10    28     8   2
    11    27     9  ar
    12    11    10  ar
    13    12    10  ar
    14    15    11  ar
    15    16    12  ar
    16    14    13  ar
    17    13    17  ar
    18    18    14  ar
    19    29    15  ar
    20    29    16  ar
    21    17    31  ar
    22    32    18  ar
    23    30    19   2
    24    19    36   1
    25    21    20   1
    26    22    21   1
    27    24    22   1
    28    23    29   1
    29    33    24   1
    30    30    25   1
    31    25    34   1
    32    26    28  am
    33    34    26   1
    34    34    27   1
    35    28    33   1
    36    30    32   1
    37    31    32  ar
    38    31    36   1
    39     2    37   1
    40     2    38   1
    41     4    39   1
    42     5    40   1
    43     5    41   1
    44     6    42   1
    45     6    43   1
    46     6    44   1
    47    10    45   1
    48    11    46   1
    49    12    47   1
    50    13    48   1
    51    14    49   1
    52    15    50   1
    53    16    51   1
    54    17    52   1
    55    18    53   1
    56    19    54   1
    57    20    55   1
    58    20    56   1
    59    21    57   1
    60    21    58   1
    61    22    59   1
    62    22    60   1
    63    23    61   1
    64    23    62   1
    65    24    63   1
    66    24    64   1
    67    25    65   1
    68    25    66   1
    69    26    67   1
    70    33    68   1
    71    34    69   1
    72    36    70   1
@<TRIPOS>SUBSTRUCTURE
     1  LSW      1

