@<TRIPOS>MOLECULE
3l3n_ligand_087
    70    72
SMALL
GAST_HUCK
****
This file was generated by PARSER (from files_GN.cpp)

@<TRIPOS>ATOM
      1 C          44.7840   15.2231  110.0630 C.2         1 LSW       0.0847
      2 N          42.8841   15.7801  108.7231 N.4         1 LSW       0.2599
      3 O          45.6901   14.4011  110.6443 O.co2       1 LSW      -0.5643
      4 CA         43.5963   14.6497  109.3816 C.3         1 LSW       0.0340
      5 CB         44.0405   13.5026  108.4080 C.3         1 LSW       0.0122
      6 NAA        43.7744   19.5597  104.7495 N.4         1 LSW       0.2185
      7 OAC        39.6145   12.9188  104.4206 O.co2       1 LSW      -0.5665
      8 OAD        41.8442   14.6079  106.4675 O.2         1 LSW      -0.3908
      9 OAF        41.5754   12.2688  105.4724 O.co2       1 LSW      -0.5665
     10 CAG        42.7671    9.8934  111.9471 C.ar        1 LSW      -0.0687
     11 CAH        43.9024    9.7577  111.1206 C.ar        1 LSW      -0.0686
     12 CAI        41.7656   10.8305  111.6149 C.ar        1 LSW      -0.0686
     13 CAJ        38.1006    7.3586  108.0327 C.ar        1 LSW      -0.0768
     14 CAK        38.6390    8.4046  108.8103 C.ar        1 LSW      -0.0792
     15 CAL        44.0361   10.5583  109.9749 C.ar        1 LSW      -0.0603
     16 CAM        41.8901   11.6108  110.4576 C.ar        1 LSW      -0.0603
     17 CAN        37.4566    7.6340  106.8073 C.ar        1 LSW      -0.0443
     18 CAO        38.5461    9.7453  108.3706 C.ar        1 LSW      -0.0747
     19 CAP        36.9697   10.8272  105.2960 C.2         1 LSW       0.0166
     20 CAQ        43.6552   18.3755  105.6095 C.3         1 LSW      -0.0354
     21 CAR        42.1899   18.0264  106.0038 C.3         1 LSW      -0.0123
     22 CAS        41.8316   18.2268  107.5061 C.3         1 LSW      -0.0410
     23 CAT        43.1347   12.2416  108.3497 C.3         1 LSW      -0.0125
     24 CAU        40.8735   17.1652  108.1385 C.3         1 LSW       0.0081
     25 CAW        38.0826   12.5813  106.8065 C.3         1 LSW      -0.0013
     26 NAX        39.9655   14.0100  107.5402 N.am        1 LSW      -0.2657
     27 CBB        40.2556   12.5508  105.5552 C.2         1 LSW       0.0613
     28 CBC        41.0688   14.7547  107.4074 C.2         1 LSW       0.2263
     29 CBD        43.0270   11.4842  109.6164 C.ar        1 LSW      -0.0427
     30 CBE        37.6579   11.2013  106.4539 C.2         1 LSW      -0.0424
     31 CBF        37.3657    8.9753  106.3877 C.ar        1 LSW       0.0603
     32 CBG        37.9030   10.0152  107.1492 C.ar        1 LSW      -0.0214
     33 CBI        41.4247   15.7292  108.4273 C.3         1 LSW       0.0683
     34 CBJ        39.6306   12.7597  106.8918 C.3         1 LSW       0.0987
     35 OXT        45.2089   16.4771  109.7623 O.co2       1 LSW      -0.5643
     36 NXZ        36.8140    9.4954  105.2792 N.pl3       1 LSW      -0.2891
     37 H1         43.3752   16.0067  107.8598 H           1 LSW       0.2052
     38 H2         43.0032   16.5753  109.3536 H           1 LSW       0.2052
     39 H3         42.9698   14.2529  110.1823 H           1 LSW       0.1027
     40 H4         45.0418   13.1440  108.6544 H           1 LSW       0.0361
     41 H5         44.1144   13.9168  107.4017 H           1 LSW       0.0361
     42 H6         44.7645   19.7713  104.5971 H           1 LSW       0.1994
     43 H7         43.3268   20.3689  105.1831 H           1 LSW       0.1994
     44 H8         43.3395   19.3670  103.8416 H           1 LSW       0.1994
     45 H9         42.6684    9.3066  112.7763 H           1 LSW       0.0559
     46 H10        44.6204    9.0772  111.3486 H           1 LSW       0.0599
     47 H11        40.9428   10.9211  112.2140 H           1 LSW       0.0599
     48 H12        38.1788    6.3886  108.3536 H           1 LSW       0.0530
     49 H13        39.1059    8.1889  109.6951 H           1 LSW       0.0510
     50 H14        44.8594   10.4406  109.3774 H           1 LSW       0.0557
     51 H15        41.1418   12.2627  110.2221 H           1 LSW       0.0557
     52 H16        37.0727    6.8809  106.2347 H           1 LSW       0.0541
     53 H17        38.9450   10.4957  108.9314 H           1 LSW       0.0540
     54 H18        36.6580   11.4597  104.5570 H           1 LSW       0.0795
     55 H19        44.2766   18.5301  106.4895 H           1 LSW       0.0813
     56 H20        44.0854   17.5488  105.0425 H           1 LSW       0.0813
     57 H21        42.0276   16.9897  105.7361 H           1 LSW       0.0317
     58 H22        41.4975   18.6118  105.3904 H           1 LSW       0.0317
     59 H23        41.3736   19.2124  107.6180 H           1 LSW       0.0270
     60 H24        42.7422   18.2545  108.1065 H           1 LSW       0.0270
     61 H25        43.5292   11.5848  107.5743 H           1 LSW       0.0429
     62 H26        42.1452   12.5035  108.0037 H           1 LSW       0.0429
     63 H27        39.9689   17.1076  107.5314 H           1 LSW       0.0346
     64 H28        40.5590   17.5933  109.0969 H           1 LSW       0.0346
     65 H29        37.6328   12.8385  107.7667 H           1 LSW       0.0390
     66 H30        37.6852   13.2888  106.0713 H           1 LSW       0.0390
     67 H31        39.3954   14.2366  108.2928 H           1 LSW       0.1878
     68 H32        40.9493   15.4005  109.3535 H           1 LSW       0.1099
     69 H33        40.0067   11.9764  107.5543 H           1 LSW       0.0741
     70 H34        36.3876    8.9859  104.5702 H           1 LSW       0.2216
@<TRIPOS>BOND
     1     1     3  ar
     2     4     1   1
     3     1    35  ar
     4     2     4   1
     5    33     2   1
     6     4     5   1
     7     5    23   1
     8    20     6   1
     9    27     7  ar
    10    28     8   2
    11    27     9  ar
    12    11    10  ar
    13    12    10  ar
    14    15    11  ar
    15    16    12  ar
    16    14    13  ar
    17    13    17  ar
    18    18    14  ar
    19    29    15  ar
    20    29    16  ar
    21    17    31  ar
    22    32    18  ar
    23    30    19   2
    24    19    36   1
    25    21    20   1
    26    22    21   1
    27    24    22   1
    28    23    29   1
    29    33    24   1
    30    30    25   1
    31    25    34   1
    32    26    28  am
    33    34    26   1
    34    34    27   1
    35    28    33   1
    36    30    32   1
    37    31    32  ar
    38    31    36   1
    39     2    37   1
    40     2    38   1
    41     4    39   1
    42     5    40   1
    43     5    41   1
    44     6    42   1
    45     6    43   1
    46     6    44   1
    47    10    45   1
    48    11    46   1
    49    12    47   1
    50    13    48   1
    51    14    49   1
    52    15    50   1
    53    16    51   1
    54    17    52   1
    55    18    53   1
    56    19    54   1
    57    20    55   1
    58    20    56   1
    59    21    57   1
    60    21    58   1
    61    22    59   1
    62    22    60   1
    63    23    61   1
    64    23    62   1
    65    24    63   1
    66    24    64   1
    67    25    65   1
    68    25    66   1
    69    26    67   1
    70    33    68   1
    71    34    69   1
    72    36    70   1
@<TRIPOS>SUBSTRUCTURE
     1  LSW      1

