@<TRIPOS>MOLECULE
3l3n_ligand_075
    70    72
SMALL
GAST_HUCK
****
This file was generated by PARSER (from files_GN.cpp)

@<TRIPOS>ATOM
      1 C          43.9002   14.9412  108.3244 C.2         1 LSW       0.0847
      2 N          42.1405   13.8703  109.6865 N.4         1 LSW       0.2599
      3 O          44.7405   15.7377  109.0272 O.co2       1 LSW      -0.5643
      4 CA         42.4520   14.8892  108.6447 C.3         1 LSW       0.0340
      5 CB         41.8539   16.3031  108.9092 C.3         1 LSW       0.0122
      6 NAA        40.0729   16.5871  115.0247 N.4         1 LSW       0.2185
      7 OAC        46.7018   13.2217  109.9210 O.co2       1 LSW      -0.5665
      8 OAD        44.4698   12.6342  110.9008 O.2         1 LSW      -0.3908
      9 OAF        48.4263   13.4663  111.3781 O.co2       1 LSW      -0.5665
     10 CAG        38.8975   20.2831  110.0025 C.ar        1 LSW      -0.0687
     11 CAH        38.8886   19.2528  110.9586 C.ar        1 LSW      -0.0686
     12 CAI        39.3382   20.0209  108.6932 C.ar        1 LSW      -0.0686
     13 CAJ        47.9835   17.5359  117.7049 C.ar        1 LSW      -0.0768
     14 CAK        47.8708   16.1338  117.5784 C.ar        1 LSW      -0.0792
     15 CAL        39.3309   17.9644  110.6098 C.ar        1 LSW      -0.0603
     16 CAM        39.7774   18.7308  108.3448 C.ar        1 LSW      -0.0603
     17 CAN        47.6609   18.3762  116.6195 C.ar        1 LSW      -0.0443
     18 CAO        47.4704   15.5530  116.3576 C.ar        1 LSW      -0.0747
     19 CAP        46.5135   17.4037  113.3972 C.2         1 LSW       0.0166
     20 CAQ        39.9075   15.1975  114.5670 C.3         1 LSW      -0.0354
     21 CAR        40.7480   14.9718  113.2883 C.3         1 LSW      -0.0123
     22 CAS        40.5848   13.5518  112.6698 C.3         1 LSW      -0.0410
     23 CAT        40.3007   16.3367  108.9336 C.3         1 LSW      -0.0125
     24 CAU        41.8978   13.0216  112.0307 C.3         1 LSW       0.0081
     25 CAW        46.5583   14.7974  113.3705 C.3         1 LSW      -0.0013
     26 NAX        44.9143   14.7384  111.5689 N.am        1 LSW      -0.2657
     27 CBB        47.0983   13.6096  111.1572 C.2         1 LSW       0.0613
     28 CBC        44.0933   13.7678  111.1701 C.2         1 LSW       0.2263
     29 CBD        39.7812   17.6834  109.2969 C.ar        1 LSW      -0.0427
     30 CBE        46.7067   16.1450  113.9716 C.2         1 LSW      -0.0424
     31 CBF        47.2291   17.7791  115.4199 C.ar        1 LSW       0.0603
     32 CBG        47.1366   16.3924  115.2779 C.ar        1 LSW      -0.0214
     33 CBI        42.6553   14.0126  111.0838 C.3         1 LSW       0.0683
     34 CBJ        46.3376   14.7077  111.8216 C.3         1 LSW       0.0987
     35 OXT        44.3461   14.4743  107.1398 O.co2       1 LSW      -0.5643
     36 NXZ        46.8541   18.3590  114.2755 N.pl3       1 LSW      -0.2891
     37 H1         42.4717   12.9701  109.3346 H           1 LSW       0.2052
     38 H2         41.1196   13.8155  109.7441 H           1 LSW       0.2052
     39 H3         41.9541   14.5217  107.7396 H           1 LSW       0.1027
     40 H4         42.1933   16.9817  108.1205 H           1 LSW       0.0361
     41 H5         42.2303   16.6989  109.8541 H           1 LSW       0.0361
     42 H6         39.6643   16.6958  115.9593 H           1 LSW       0.1994
     43 H7         39.5922   17.2098  114.3651 H           1 LSW       0.1994
     44 H8         41.0758   16.8284  115.0421 H           1 LSW       0.1994
     45 H9         38.5771   21.2218  110.2541 H           1 LSW       0.0559
     46 H10        38.5708   19.4397  111.9153 H           1 LSW       0.0599
     47 H11        39.3451   20.7703  107.9956 H           1 LSW       0.0599
     48 H12        48.2896   17.9426  118.5936 H           1 LSW       0.0530
     49 H13        48.0723   15.5277  118.3767 H           1 LSW       0.0510
     50 H14        39.3289   17.2349  111.3269 H           1 LSW       0.0557
     51 H15        40.0956   18.5587  107.3863 H           1 LSW       0.0557
     52 H16        47.7354   19.3938  116.7055 H           1 LSW       0.0541
     53 H17        47.4050   14.5389  116.2619 H           1 LSW       0.0540
     54 H18        46.1785   17.5898  112.4532 H           1 LSW       0.0795
     55 H19        38.8416   15.0218  114.3769 H           1 LSW       0.0813
     56 H20        40.2460   14.5240  115.3655 H           1 LSW       0.0813
     57 H21        41.7953   15.1615  113.5555 H           1 LSW       0.0317
     58 H22        40.4560   15.7217  112.5432 H           1 LSW       0.0317
     59 H23        39.7801   13.5734  111.9288 H           1 LSW       0.0270
     60 H24        40.2893   12.8502  113.4593 H           1 LSW       0.0270
     61 H25        39.9341   15.5950  109.6450 H           1 LSW       0.0429
     62 H26        39.9028   16.0629  107.9539 H           1 LSW       0.0429
     63 H27        41.6557   12.1072  111.4840 H           1 LSW       0.0346
     64 H28        42.5404   12.7242  112.8706 H           1 LSW       0.0346
     65 H29        45.7269   14.3086  113.8806 H           1 LSW       0.0390
     66 H30        47.4591   14.2501  113.6479 H           1 LSW       0.0390
     67 H31        44.4717   15.5733  111.8050 H           1 LSW       0.1878
     68 H32        42.4436   15.0260  111.4238 H           1 LSW       0.1099
     69 H33        46.7408   15.6122  111.3640 H           1 LSW       0.0741
     70 H34        46.8311   19.3171  114.1085 H           1 LSW       0.2216
@<TRIPOS>BOND
     1     1     3  ar
     2     4     1   1
     3     1    35  ar
     4     2     4   1
     5    33     2   1
     6     4     5   1
     7     5    23   1
     8    20     6   1
     9    27     7  ar
    10    28     8   2
    11    27     9  ar
    12    11    10  ar
    13    12    10  ar
    14    15    11  ar
    15    16    12  ar
    16    14    13  ar
    17    13    17  ar
    18    18    14  ar
    19    29    15  ar
    20    29    16  ar
    21    17    31  ar
    22    32    18  ar
    23    30    19   2
    24    19    36   1
    25    21    20   1
    26    22    21   1
    27    24    22   1
    28    23    29   1
    29    33    24   1
    30    30    25   1
    31    25    34   1
    32    26    28  am
    33    34    26   1
    34    34    27   1
    35    28    33   1
    36    30    32   1
    37    31    32  ar
    38    31    36   1
    39     2    37   1
    40     2    38   1
    41     4    39   1
    42     5    40   1
    43     5    41   1
    44     6    42   1
    45     6    43   1
    46     6    44   1
    47    10    45   1
    48    11    46   1
    49    12    47   1
    50    13    48   1
    51    14    49   1
    52    15    50   1
    53    16    51   1
    54    17    52   1
    55    18    53   1
    56    19    54   1
    57    20    55   1
    58    20    56   1
    59    21    57   1
    60    21    58   1
    61    22    59   1
    62    22    60   1
    63    23    61   1
    64    23    62   1
    65    24    63   1
    66    24    64   1
    67    25    65   1
    68    25    66   1
    69    26    67   1
    70    33    68   1
    71    34    69   1
    72    36    70   1
@<TRIPOS>SUBSTRUCTURE
     1  LSW      1

