@<TRIPOS>MOLECULE
3l3n_ligand_028
    70    72
SMALL
GAST_HUCK
****
This file was generated by PARSER (from files_GN.cpp)

@<TRIPOS>ATOM
      1 C          46.4093   13.5668  110.3887 C.2         1 LSW       0.0847
      2 N          44.4441   14.5295  111.5945 N.4         1 LSW       0.2599
      3 O          47.5960   13.0217  110.7581 O.co2       1 LSW      -0.5643
      4 CA         45.8252   14.7652  111.0686 C.3         1 LSW       0.0340
      5 CB         46.7554   15.2557  112.2365 C.3         1 LSW       0.0122
      6 NAA        41.8489    8.8031  113.8845 N.4         1 LSW       0.2185
      7 OAC        38.9044   14.1982  108.5034 O.co2       1 LSW      -0.5665
      8 OAD        43.0677   15.9343  109.7019 O.2         1 LSW      -0.3908
      9 OAF        40.0027   12.9476  106.9110 O.co2       1 LSW      -0.5665
     10 CAG        48.5848   17.0540  116.7493 C.ar        1 LSW      -0.0687
     11 CAH        48.1331   18.1236  115.9588 C.ar        1 LSW      -0.0686
     12 CAI        48.2323   15.7349  116.4151 C.ar        1 LSW      -0.0686
     13 CAJ        43.7606   19.7707  104.9623 C.ar        1 LSW      -0.0768
     14 CAK        42.5451   19.1409  104.6214 C.ar        1 LSW      -0.0792
     15 CAL        47.3473   17.8734  114.8149 C.ar        1 LSW      -0.0603
     16 CAM        47.4418   15.4880  115.2794 C.ar        1 LSW      -0.0603
     17 CAN        44.6456   19.1694  105.8819 C.ar        1 LSW      -0.0443
     18 CAO        42.2094   17.8852  105.1758 C.ar        1 LSW      -0.0747
     19 CAP        44.2954   15.9854  107.4407 C.2         1 LSW       0.0166
     20 CAQ        42.0448    9.4352  112.5789 C.3         1 LSW      -0.0354
     21 CAR        41.5650   10.9108  112.5298 C.3         1 LSW      -0.0123
     22 CAS        42.7003   11.9694  112.4689 C.3         1 LSW      -0.0410
     23 CAT        46.1487   16.2741  113.2542 C.3         1 LSW      -0.0125
     24 CAU        42.2758   13.3055  111.7719 C.3         1 LSW       0.0081
     25 CAW        42.0729   14.9808  106.6253 C.3         1 LSW      -0.0013
     26 NAX        41.8634   14.2309  108.9613 N.am        1 LSW      -0.2657
     27 CBB        39.9411   14.0852  107.6421 C.2         1 LSW       0.0613
     28 CBC        42.7491   14.7566  109.7979 C.2         1 LSW       0.2263
     29 CBD        47.0110   16.5501  114.4419 C.ar        1 LSW      -0.0427
     30 CBE        43.0981   16.0475  106.7214 C.2         1 LSW      -0.0424
     31 CBF        44.3086   17.9123  106.4126 C.ar        1 LSW       0.0603
     32 CBG        43.1131   17.2740  106.0621 C.ar        1 LSW      -0.0214
     33 CBI        43.3615   13.8746  110.7929 C.3         1 LSW       0.0683
     34 CBJ        41.1667   14.8760  107.8897 C.3         1 LSW       0.0987
     35 OXT        45.8399   13.0623  109.2714 O.co2       1 LSW      -0.5643
     36 NXZ        44.9893   17.1252  107.2505 N.pl3       1 LSW      -0.2891
     37 H1         44.0796   15.4517  111.8474 H           1 LSW       0.2052
     38 H2         44.5555   14.0077  112.4626 H           1 LSW       0.2052
     39 H3         45.7738   15.5773  110.3390 H           1 LSW       0.1027
     40 H4         47.6534   15.7079  111.8018 H           1 LSW       0.0361
     41 H5         47.0758   14.3749  112.7943 H           1 LSW       0.0361
     42 H6         42.2564    7.8687  113.8593 H           1 LSW       0.1994
     43 H7         40.8502    8.7239  114.0748 H           1 LSW       0.1994
     44 H8         42.2905    9.3444  114.6281 H           1 LSW       0.1994
     45 H9         49.1607   17.2355  117.5752 H           1 LSW       0.0559
     46 H10        48.3716   19.0848  116.2143 H           1 LSW       0.0599
     47 H11        48.5552   14.9548  116.9926 H           1 LSW       0.0599
     48 H12        44.0048   20.6683  104.5380 H           1 LSW       0.0530
     49 H13        41.9059   19.5937  103.9685 H           1 LSW       0.0510
     50 H14        47.0135   18.6692  114.2662 H           1 LSW       0.0557
     51 H15        47.1807   14.5236  115.0712 H           1 LSW       0.0557
     52 H16        45.5277   19.6214  106.1364 H           1 LSW       0.0541
     53 H17        41.3335   17.4272  104.9239 H           1 LSW       0.0540
     54 H18        44.6147   15.1992  107.9977 H           1 LSW       0.0795
     55 H19        41.4718    8.8534  111.8532 H           1 LSW       0.0813
     56 H20        43.0976    9.3630  112.3020 H           1 LSW       0.0813
     57 H21        40.9250   11.1253  113.3895 H           1 LSW       0.0317
     58 H22        40.9513   11.0221  111.6303 H           1 LSW       0.0317
     59 H23        43.5389   11.5178  111.9330 H           1 LSW       0.0270
     60 H24        43.0541   12.1825  113.4800 H           1 LSW       0.0270
     61 H25        45.2101   15.8832  113.6514 H           1 LSW       0.0429
     62 H26        45.9183   17.1969  112.7137 H           1 LSW       0.0429
     63 H27        42.0385   14.0567  112.5380 H           1 LSW       0.0346
     64 H28        41.3429   13.1378  111.2223 H           1 LSW       0.0346
     65 H29        42.5722   14.0256  106.4424 H           1 LSW       0.0390
     66 H30        41.4559   15.1760  105.7458 H           1 LSW       0.0390
     67 H31        41.6638   13.2917  109.0893 H           1 LSW       0.1878
     68 H32        43.7970   13.0333  110.2423 H           1 LSW       0.1099
     69 H33        40.8363   15.8778  108.1875 H           1 LSW       0.0741
     70 H34        45.8498   17.3351  107.6449 H           1 LSW       0.2216
@<TRIPOS>BOND
     1     1     3  ar
     2     4     1   1
     3     1    35  ar
     4     2     4   1
     5    33     2   1
     6     4     5   1
     7     5    23   1
     8    20     6   1
     9    27     7  ar
    10    28     8   2
    11    27     9  ar
    12    11    10  ar
    13    12    10  ar
    14    15    11  ar
    15    16    12  ar
    16    14    13  ar
    17    13    17  ar
    18    18    14  ar
    19    29    15  ar
    20    29    16  ar
    21    17    31  ar
    22    32    18  ar
    23    30    19   2
    24    19    36   1
    25    21    20   1
    26    22    21   1
    27    24    22   1
    28    23    29   1
    29    33    24   1
    30    30    25   1
    31    25    34   1
    32    26    28  am
    33    34    26   1
    34    34    27   1
    35    28    33   1
    36    30    32   1
    37    31    32  ar
    38    31    36   1
    39     2    37   1
    40     2    38   1
    41     4    39   1
    42     5    40   1
    43     5    41   1
    44     6    42   1
    45     6    43   1
    46     6    44   1
    47    10    45   1
    48    11    46   1
    49    12    47   1
    50    13    48   1
    51    14    49   1
    52    15    50   1
    53    16    51   1
    54    17    52   1
    55    18    53   1
    56    19    54   1
    57    20    55   1
    58    20    56   1
    59    21    57   1
    60    21    58   1
    61    22    59   1
    62    22    60   1
    63    23    61   1
    64    23    62   1
    65    24    63   1
    66    24    64   1
    67    25    65   1
    68    25    66   1
    69    26    67   1
    70    33    68   1
    71    34    69   1
    72    36    70   1
@<TRIPOS>SUBSTRUCTURE
     1  LSW      1

