@<TRIPOS>MOLECULE
3l3n_ligand_006
    70    72
SMALL
GAST_HUCK
****
This file was generated by PARSER (from files_GN.cpp)

@<TRIPOS>ATOM
      1 C          41.4450   11.3297  105.5049 C.2         1 LSW       0.0847
      2 N          40.9930   12.4076  107.6660 N.4         1 LSW       0.2599
      3 O          42.5869   10.9321  104.8995 O.co2       1 LSW      -0.5643
      4 CA         41.2509   11.1183  106.9555 C.3         1 LSW       0.0340
      5 CB         40.0952   10.1260  107.2778 C.3         1 LSW       0.0122
      6 NAA        37.8842   18.1725  108.3242 N.4         1 LSW       0.2185
      7 OAC        44.0737   10.2174  110.6693 O.co2       1 LSW      -0.5665
      8 OAD        44.2114   13.6871  106.9566 O.2         1 LSW      -0.3908
      9 OAF        45.4894    9.5582  108.9667 O.co2       1 LSW      -0.5665
     10 CAG        39.1423    8.3118  102.5530 C.ar        1 LSW      -0.0687
     11 CAH        38.1659    8.5506  103.5332 C.ar        1 LSW      -0.0686
     12 CAI        40.4951    8.1902  102.9236 C.ar        1 LSW      -0.0686
     13 CAJ        45.2011   15.8635  114.5957 C.ar        1 LSW      -0.0768
     14 CAK        46.2920   15.7490  113.7026 C.ar        1 LSW      -0.0792
     15 CAL        38.5405    8.6665  104.8852 C.ar        1 LSW      -0.0603
     16 CAM        40.8684    8.2973  104.2744 C.ar        1 LSW      -0.0603
     17 CAN        43.9871   15.2000  114.3291 C.ar        1 LSW      -0.0443
     18 CAO        46.1878   14.9544  112.5433 C.ar        1 LSW      -0.0747
     19 CAP        43.2568   13.0731  111.5843 C.2         1 LSW       0.0166
     20 CAQ        38.3756   17.0024  109.0603 C.3         1 LSW      -0.0354
     21 CAR        39.8464   16.6489  108.6961 C.3         1 LSW      -0.0123
     22 CAS        40.0899   15.1283  108.5030 C.3         1 LSW      -0.0410
     23 CAT        40.2737    8.6869  106.7075 C.3         1 LSW      -0.0125
     24 CAU        41.5977   14.7445  108.4408 C.3         1 LSW       0.0081
     25 CAW        45.4768   12.9715  110.1653 C.3         1 LSW      -0.0013
     26 NAX        43.6412   12.3549  108.6511 N.am        1 LSW      -0.2657
     27 CBB        44.8627   10.5636  109.6250 C.2         1 LSW       0.0613
     28 CBC        43.3435   13.1870  107.6623 C.2         1 LSW       0.2263
     29 CBD        39.8963    8.5508  105.2748 C.ar        1 LSW      -0.0427
     30 CBE        44.5819   13.4062  111.2786 C.2         1 LSW      -0.0424
     31 CBF        43.8978   14.4194  113.1681 C.ar        1 LSW       0.0603
     32 CBG        44.9761   14.2821  112.2912 C.ar        1 LSW      -0.0214
     33 CBI        41.9413   13.5541  107.4896 C.3         1 LSW       0.0683
     34 CBJ        44.9323   11.9561  109.1144 C.3         1 LSW       0.0987
     35 OXT        40.5352   12.0260  104.7892 O.co2       1 LSW      -0.5643
     36 NXZ        42.8720   13.6945  112.7065 N.pl3       1 LSW      -0.2891
     37 H1         40.9367   12.2003  108.6665 H           1 LSW       0.2052
     38 H2         40.0711   12.7323  107.3715 H           1 LSW       0.2052
     39 H3         42.1625   10.6773  107.3634 H           1 LSW       0.1027
     40 H4         39.1449   10.5509  106.9467 H           1 LSW       0.0361
     41 H5         40.0384   10.0377  108.3670 H           1 LSW       0.0361
     42 H6         36.8911   18.2998  108.5330 H           1 LSW       0.1994
     43 H7         38.0009   18.0348  107.3171 H           1 LSW       0.1994
     44 H8         38.4093   19.0006  108.6131 H           1 LSW       0.1994
     45 H9         38.8693    8.2170  101.5745 H           1 LSW       0.0559
     46 H10        37.1826    8.6299  103.2651 H           1 LSW       0.0599
     47 H11        41.2032    8.0111  102.2084 H           1 LSW       0.0599
     48 H12        45.2852   16.4368  115.4346 H           1 LSW       0.0530
     49 H13        47.1641   16.2413  113.9022 H           1 LSW       0.0510
     50 H14        37.8130    8.8306  105.5851 H           1 LSW       0.0557
     51 H15        41.8563    8.1969  104.5236 H           1 LSW       0.0557
     52 H16        43.1849   15.2813  114.9593 H           1 LSW       0.0541
     53 H17        46.9805   14.8632  111.9030 H           1 LSW       0.0540
     54 H18        42.6349   12.4501  111.0706 H           1 LSW       0.0795
     55 H19        37.6962   16.1741  108.8507 H           1 LSW       0.0813
     56 H20        38.3061   17.2281  110.1255 H           1 LSW       0.0813
     57 H21        40.5025   17.0264  109.4847 H           1 LSW       0.0317
     58 H22        40.1291   17.1510  107.7666 H           1 LSW       0.0317
     59 H23        39.5876   14.8315  107.5806 H           1 LSW       0.0270
     60 H24        39.6246   14.5768  109.3258 H           1 LSW       0.0270
     61 H25        39.6471    8.0002  107.2846 H           1 LSW       0.0429
     62 H26        41.3070    8.3696  106.8719 H           1 LSW       0.0429
     63 H27        41.9181   14.5196  109.4614 H           1 LSW       0.0346
     64 H28        42.1791   15.6096  108.1083 H           1 LSW       0.0346
     65 H29        46.3912   12.5544  110.6055 H           1 LSW       0.0390
     66 H30        45.7745   13.8759  109.6228 H           1 LSW       0.0390
     67 H31        42.8918   12.0047  109.1573 H           1 LSW       0.1878
     68 H32        41.8022   13.9231  106.4699 H           1 LSW       0.1099
     69 H33        45.6282   11.9558  108.2691 H           1 LSW       0.0741
     70 H34        41.9895   13.6146  113.0998 H           1 LSW       0.2216
@<TRIPOS>BOND
     1     1     3  ar
     2     4     1   1
     3     1    35  ar
     4     2     4   1
     5    33     2   1
     6     4     5   1
     7     5    23   1
     8    20     6   1
     9    27     7  ar
    10    28     8   2
    11    27     9  ar
    12    11    10  ar
    13    12    10  ar
    14    15    11  ar
    15    16    12  ar
    16    14    13  ar
    17    13    17  ar
    18    18    14  ar
    19    29    15  ar
    20    29    16  ar
    21    17    31  ar
    22    32    18  ar
    23    30    19   2
    24    19    36   1
    25    21    20   1
    26    22    21   1
    27    24    22   1
    28    23    29   1
    29    33    24   1
    30    30    25   1
    31    25    34   1
    32    26    28  am
    33    34    26   1
    34    34    27   1
    35    28    33   1
    36    30    32   1
    37    31    32  ar
    38    31    36   1
    39     2    37   1
    40     2    38   1
    41     4    39   1
    42     5    40   1
    43     5    41   1
    44     6    42   1
    45     6    43   1
    46     6    44   1
    47    10    45   1
    48    11    46   1
    49    12    47   1
    50    13    48   1
    51    14    49   1
    52    15    50   1
    53    16    51   1
    54    17    52   1
    55    18    53   1
    56    19    54   1
    57    20    55   1
    58    20    56   1
    59    21    57   1
    60    21    58   1
    61    22    59   1
    62    22    60   1
    63    23    61   1
    64    23    62   1
    65    24    63   1
    66    24    64   1
    67    25    65   1
    68    25    66   1
    69    26    67   1
    70    33    68   1
    71    34    69   1
    72    36    70   1
@<TRIPOS>SUBSTRUCTURE
     1  LSW      1

