@<TRIPOS>MOLECULE
3l3n_ligand_083
    70    72
SMALL
GAST_HUCK
****
This file was generated by PARSER (from files_GN.cpp)

@<TRIPOS>ATOM
      1 C          44.4971   12.7822  107.8063 C.2         1 LSW       0.0847
      2 N          42.4227   14.0889  107.7740 N.4         1 LSW       0.2599
      3 O          45.3507   12.2086  108.6934 O.co2       1 LSW      -0.5643
      4 CA         43.0355   12.7610  108.0630 C.3         1 LSW       0.0340
      5 CB         42.3013   11.6356  107.2704 C.3         1 LSW       0.0122
      6 NAA        42.2816   19.5029  104.6933 N.4         1 LSW       0.2185
      7 OAC        41.1995   13.6397  113.8105 O.co2       1 LSW      -0.5665
      8 OAD        40.4946   14.6560  109.5603 O.2         1 LSW      -0.3908
      9 OAF        39.9383   13.3437  111.8964 O.co2       1 LSW      -0.5665
     10 CAG        39.7860    8.8033  103.7882 C.ar        1 LSW      -0.0687
     11 CAH        39.2272   10.0853  103.9249 C.ar        1 LSW      -0.0686
     12 CAI        41.0672    8.5375  104.3058 C.ar        1 LSW      -0.0686
     13 CAJ        41.3953   20.0843  115.6848 C.ar        1 LSW      -0.0768
     14 CAK        41.3132   18.6874  115.8825 C.ar        1 LSW      -0.0792
     15 CAL        39.9485   11.1022  104.5798 C.ar        1 LSW      -0.0603
     16 CAM        41.7846    9.5511  104.9690 C.ar        1 LSW      -0.0603
     17 CAN        41.0111   20.6584  114.4535 C.ar        1 LSW      -0.0443
     18 CAO        40.8352   17.8470  114.8585 C.ar        1 LSW      -0.0747
     19 CAP        39.8760   18.9274  111.5410 C.2         1 LSW       0.0166
     20 CAQ        42.2488   18.3770  105.6354 C.3         1 LSW      -0.0354
     21 CAR        43.6823   17.9866  106.0607 C.3         1 LSW      -0.0123
     22 CAS        43.8014   16.9511  107.2248 C.3         1 LSW      -0.0410
     23 CAT        42.0171   11.9365  105.7692 C.3         1 LSW      -0.0125
     24 CAU        42.4902   16.5700  107.9943 C.3         1 LSW       0.0081
     25 CAW        39.7981   16.4142  112.1534 C.3         1 LSW      -0.0013
     26 NAX        41.8990   15.5578  111.0396 N.am        1 LSW      -0.2657
     27 CBB        40.7636   14.1304  112.6257 C.2         1 LSW       0.0613
     28 CBC        41.6072   15.1074  109.8170 C.2         1 LSW       0.2263
     29 CBD        41.2388   10.8517  105.1074 C.ar        1 LSW      -0.0427
     30 CBE        40.0599   17.8495  112.4136 C.2         1 LSW      -0.0424
     31 CBF        40.5837   19.8063  113.4207 C.ar        1 LSW       0.0603
     32 CBG        40.5063   18.4185  113.6114 C.ar        1 LSW      -0.0214
     33 CBI        42.6176   15.2068  108.7571 C.3         1 LSW       0.0683
     34 CBJ        41.0787   15.5232  112.2222 C.3         1 LSW       0.0987
     35 OXT        45.0191   13.4161  106.7243 O.co2       1 LSW      -0.5643
     36 NXZ        40.1981   20.0782  112.1648 N.pl3       1 LSW      -0.2891
     37 H1         41.4066   13.9412  107.6814 H           1 LSW       0.2052
     38 H2         42.7515   14.3981  106.8512 H           1 LSW       0.2052
     39 H3         42.8845   12.5409  109.1247 H           1 LSW       0.1027
     40 H4         41.3381   11.4645  107.7672 H           1 LSW       0.0361
     41 H5         42.8851   10.7112  107.3537 H           1 LSW       0.0361
     42 H6         41.3214   19.7867  104.4769 H           1 LSW       0.1994
     43 H7         42.7443   19.2250  103.8222 H           1 LSW       0.1994
     44 H8         42.7819   20.2989  105.1074 H           1 LSW       0.1994
     45 H9         39.2621    8.0670  103.3095 H           1 LSW       0.0559
     46 H10        38.2953   10.2822  103.5522 H           1 LSW       0.0599
     47 H11        41.4835    7.6104  104.1972 H           1 LSW       0.0599
     48 H12        41.7282   20.6923  116.4357 H           1 LSW       0.0530
     49 H13        41.6081   18.2845  116.7652 H           1 LSW       0.0510
     50 H14        39.5244   12.0281  104.6640 H           1 LSW       0.0557
     51 H15        42.7158    9.3364  105.3318 H           1 LSW       0.0557
     52 H16        41.0737   21.6614  114.2929 H           1 LSW       0.0541
     53 H17        40.7715   16.8379  115.0092 H           1 LSW       0.0540
     54 H18        39.5403   18.8570  110.5738 H           1 LSW       0.0795
     55 H19        41.7481   17.5326  105.1548 H           1 LSW       0.0813
     56 H20        41.6761   18.6931  106.5097 H           1 LSW       0.0813
     57 H21        44.2135   18.8969  106.3465 H           1 LSW       0.0317
     58 H22        44.2013   17.5688  105.1901 H           1 LSW       0.0317
     59 H23        44.5196   17.3551  107.9631 H           1 LSW       0.0270
     60 H24        44.2495   16.0371  106.8167 H           1 LSW       0.0270
     61 H25        42.9547   12.0766  105.2228 H           1 LSW       0.0429
     62 H26        41.4645   12.8782  105.7062 H           1 LSW       0.0429
     63 H27        41.6580   16.4803  107.2802 H           1 LSW       0.0346
     64 H28        42.2691   17.3787  108.7075 H           1 LSW       0.0346
     65 H29        39.3396   16.3177  111.1676 H           1 LSW       0.0390
     66 H30        39.0740   16.0938  112.9055 H           1 LSW       0.0390
     67 H31        42.7644   15.9903  111.1712 H           1 LSW       0.1878
     68 H32        43.6313   15.1434  109.1901 H           1 LSW       0.1099
     69 H33        41.7218   15.9161  113.0210 H           1 LSW       0.0741
     70 H34        40.1703   20.9570  111.7600 H           1 LSW       0.2216
@<TRIPOS>BOND
     1     1     3  ar
     2     4     1   1
     3     1    35  ar
     4     2     4   1
     5    33     2   1
     6     4     5   1
     7     5    23   1
     8    20     6   1
     9    27     7  ar
    10    28     8   2
    11    27     9  ar
    12    11    10  ar
    13    12    10  ar
    14    15    11  ar
    15    16    12  ar
    16    14    13  ar
    17    13    17  ar
    18    18    14  ar
    19    29    15  ar
    20    29    16  ar
    21    17    31  ar
    22    32    18  ar
    23    30    19   2
    24    19    36   1
    25    21    20   1
    26    22    21   1
    27    24    22   1
    28    23    29   1
    29    33    24   1
    30    30    25   1
    31    25    34   1
    32    26    28  am
    33    34    26   1
    34    34    27   1
    35    28    33   1
    36    30    32   1
    37    31    32  ar
    38    31    36   1
    39     2    37   1
    40     2    38   1
    41     4    39   1
    42     5    40   1
    43     5    41   1
    44     6    42   1
    45     6    43   1
    46     6    44   1
    47    10    45   1
    48    11    46   1
    49    12    47   1
    50    13    48   1
    51    14    49   1
    52    15    50   1
    53    16    51   1
    54    17    52   1
    55    18    53   1
    56    19    54   1
    57    20    55   1
    58    20    56   1
    59    21    57   1
    60    21    58   1
    61    22    59   1
    62    22    60   1
    63    23    61   1
    64    23    62   1
    65    24    63   1
    66    24    64   1
    67    25    65   1
    68    25    66   1
    69    26    67   1
    70    33    68   1
    71    34    69   1
    72    36    70   1
@<TRIPOS>SUBSTRUCTURE
     1  LSW      1

