@<TRIPOS>MOLECULE
3l3n_ligand_003
    70    72
SMALL
GAST_HUCK
****
This file was generated by PARSER (from files_GN.cpp)

@<TRIPOS>ATOM
      1 C          47.0990   13.7699  110.9978 C.2         1 LSW       0.0847
      2 N          44.9836   14.4898  112.1333 N.4         1 LSW       0.2599
      3 O          48.3443   13.3787  111.3691 O.co2       1 LSW      -0.5643
      4 CA         46.3449   14.8756  111.6577 C.3         1 LSW       0.0340
      5 CB         47.1441   15.4439  112.8760 C.3         1 LSW       0.0122
      6 NAA        41.1129    8.4532  112.7358 N.4         1 LSW       0.2185
      7 OAC        43.5689   14.6283  107.0979 O.co2       1 LSW      -0.5665
      8 OAD        43.2827   13.4050  109.2070 O.2         1 LSW      -0.3908
      9 OAF        44.6275   16.6775  107.4086 O.co2       1 LSW      -0.5665
     10 CAG        48.8870   18.4996  116.6535 C.ar        1 LSW      -0.0687
     11 CAH        48.1070   19.2576  115.7635 C.ar        1 LSW      -0.0686
     12 CAI        48.8455   17.0940  116.5976 C.ar        1 LSW      -0.0686
     13 CAJ        37.4154   18.3782  110.3339 C.ar        1 LSW      -0.0768
     14 CAK        37.9039   17.7773  109.1554 C.ar        1 LSW      -0.0792
     15 CAL        47.2995   18.6135  114.8086 C.ar        1 LSW      -0.0603
     16 CAM        48.0251   16.4506  115.6522 C.ar        1 LSW      -0.0603
     17 CAN        38.3026   18.8026  111.3418 C.ar        1 LSW      -0.0443
     18 CAO        39.2892   17.6015  108.9643 C.ar        1 LSW      -0.0747
     19 CAP        41.8507   18.7062  111.2818 C.2         1 LSW       0.0166
     20 CAQ        42.2899    9.2001  113.2060 C.3         1 LSW      -0.0354
     21 CAR        42.0540   10.7361  113.2586 C.3         1 LSW      -0.0123
     22 CAS        42.5813   11.5132  112.0144 C.3         1 LSW      -0.0410
     23 CAT        46.3962   16.5185  113.7151 C.3         1 LSW      -0.0125
     24 CAU        42.9988   12.9872  112.3316 C.3         1 LSW       0.0081
     25 CAW        42.5574   17.6524  109.0598 C.3         1 LSW      -0.0013
     26 NAX        43.2155   15.4573  110.0502 N.am        1 LSW      -0.2657
     27 CBB        43.5863   15.8486  107.6918 C.2         1 LSW       0.0613
     28 CBC        43.4849   14.1557  110.1698 C.2         1 LSW       0.2263
     29 CBD        47.2505   17.1985  114.7289 C.ar        1 LSW      -0.0427
     30 CBE        41.5656   18.0649  110.0732 C.2         1 LSW      -0.0424
     31 CBF        39.6815   18.6351  111.1373 C.ar        1 LSW       0.0603
     32 CBG        40.1753   18.0343  109.9714 C.ar        1 LSW      -0.0214
     33 CBI        44.0840   13.5793  111.3617 C.3         1 LSW       0.0683
     34 CBJ        42.7053   16.1108  108.8608 C.3         1 LSW       0.0987
     35 OXT        46.5958   13.2002  109.8835 O.co2       1 LSW      -0.5643
     36 NXZ        40.7066   19.0160  111.9088 N.pl3       1 LSW      -0.2891
     37 H1         44.4593   15.3505  112.3141 H           1 LSW       0.2052
     38 H2         45.1417   14.0297  113.0284 H           1 LSW       0.2052
     39 H3         46.2282   15.6859  110.9355 H           1 LSW       0.1027
     40 H4         48.0707   15.8860  112.5014 H           1 LSW       0.0361
     41 H5         47.4150   14.6223  113.5427 H           1 LSW       0.0361
     42 H6         41.3898    7.4890  112.5163 H           1 LSW       0.1994
     43 H7         40.7231    8.8987  111.8979 H           1 LSW       0.1994
     44 H8         40.4197    8.4368  113.4921 H           1 LSW       0.1994
     45 H9         49.4826   18.9677  117.3406 H           1 LSW       0.0559
     46 H10        48.1307   20.2807  115.8088 H           1 LSW       0.0599
     47 H11        49.4090   16.5424  117.2449 H           1 LSW       0.0599
     48 H12        36.4029   18.5093  110.4530 H           1 LSW       0.0530
     49 H13        37.2531   17.4817  108.4254 H           1 LSW       0.0510
     50 H14        46.7429   19.1866  114.1712 H           1 LSW       0.0557
     51 H15        47.9966   15.4311  115.6431 H           1 LSW       0.0557
     52 H16        37.9473   19.2420  112.1976 H           1 LSW       0.0541
     53 H17        39.6534   17.1922  108.1032 H           1 LSW       0.0540
     54 H18        42.7819   18.9458  111.6200 H           1 LSW       0.0795
     55 H19        43.1415    8.9535  112.5651 H           1 LSW       0.0813
     56 H20        42.5152    8.8290  114.2117 H           1 LSW       0.0813
     57 H21        42.5742   11.0907  114.1546 H           1 LSW       0.0317
     58 H22        40.9897   10.9364  113.3981 H           1 LSW       0.0317
     59 H23        41.8077   11.5064  111.2406 H           1 LSW       0.0270
     60 H24        43.4449   10.9639  111.6245 H           1 LSW       0.0270
     61 H25        45.5648   16.0574  114.2513 H           1 LSW       0.0429
     62 H26        45.9734   17.2458  113.0202 H           1 LSW       0.0429
     63 H27        43.4084   13.0085  113.3475 H           1 LSW       0.0346
     64 H28        42.1017   13.6199  112.3481 H           1 LSW       0.0346
     65 H29        43.5359   18.0536  109.3432 H           1 LSW       0.0390
     66 H30        42.2711   18.1266  108.1156 H           1 LSW       0.0390
     67 H31        43.3373   16.0305  110.8374 H           1 LSW       0.1878
     68 H32        44.7254   12.7595  111.0347 H           1 LSW       0.1099
     69 H33        41.7189   15.7001  108.6406 H           1 LSW       0.0741
     70 H34        40.6369   19.4816  112.7567 H           1 LSW       0.2216
@<TRIPOS>BOND
     1     1     3  ar
     2     4     1   1
     3     1    35  ar
     4     2     4   1
     5    33     2   1
     6     4     5   1
     7     5    23   1
     8    20     6   1
     9    27     7  ar
    10    28     8   2
    11    27     9  ar
    12    11    10  ar
    13    12    10  ar
    14    15    11  ar
    15    16    12  ar
    16    14    13  ar
    17    13    17  ar
    18    18    14  ar
    19    29    15  ar
    20    29    16  ar
    21    17    31  ar
    22    32    18  ar
    23    30    19   2
    24    19    36   1
    25    21    20   1
    26    22    21   1
    27    24    22   1
    28    23    29   1
    29    33    24   1
    30    30    25   1
    31    25    34   1
    32    26    28  am
    33    34    26   1
    34    34    27   1
    35    28    33   1
    36    30    32   1
    37    31    32  ar
    38    31    36   1
    39     2    37   1
    40     2    38   1
    41     4    39   1
    42     5    40   1
    43     5    41   1
    44     6    42   1
    45     6    43   1
    46     6    44   1
    47    10    45   1
    48    11    46   1
    49    12    47   1
    50    13    48   1
    51    14    49   1
    52    15    50   1
    53    16    51   1
    54    17    52   1
    55    18    53   1
    56    19    54   1
    57    20    55   1
    58    20    56   1
    59    21    57   1
    60    21    58   1
    61    22    59   1
    62    22    60   1
    63    23    61   1
    64    23    62   1
    65    24    63   1
    66    24    64   1
    67    25    65   1
    68    25    66   1
    69    26    67   1
    70    33    68   1
    71    34    69   1
    72    36    70   1
@<TRIPOS>SUBSTRUCTURE
     1  LSW      1

