@<TRIPOS>MOLECULE
3l3n_ligand_055
    70    72
SMALL
GAST_HUCK
****
This file was generated by PARSER (from files_GN.cpp)

@<TRIPOS>ATOM
      1 C          42.6783   13.7692  112.1076 C.2         1 LSW       0.0847
      2 N          42.4317   15.6730  110.4686 N.4         1 LSW       0.2599
      3 O          42.2568   13.7515  113.3950 O.co2       1 LSW      -0.5643
      4 CA         41.8626   14.4116  111.0377 C.3         1 LSW       0.0340
      5 CB         41.2263   13.4445  109.9797 C.3         1 LSW       0.0122
      6 NAA        41.0086   19.3892  105.4643 N.4         1 LSW       0.2185
      7 OAC        46.6626   12.8009  110.2224 O.co2       1 LSW      -0.5665
      8 OAD        45.4248   17.0738  110.2123 O.2         1 LSW      -0.3908
      9 OAF        48.5920   13.3566  111.3578 O.co2       1 LSW      -0.5665
     10 CAG        40.7201   11.0484  105.4387 C.ar        1 LSW      -0.0687
     11 CAH        42.0353   11.5119  105.6043 C.ar        1 LSW      -0.0686
     12 CAI        39.8506   11.0004  106.5403 C.ar        1 LSW      -0.0686
     13 CAJ        48.0284   17.1786  117.6804 C.ar        1 LSW      -0.0768
     14 CAK        47.9369   15.7954  117.4067 C.ar        1 LSW      -0.0792
     15 CAL        42.4804   11.9354  106.8722 C.ar        1 LSW      -0.0603
     16 CAM        40.2984   11.4161  107.8101 C.ar        1 LSW      -0.0603
     17 CAN        47.7037   18.1263  116.6876 C.ar        1 LSW      -0.0443
     18 CAO        47.5359   15.3442  116.1356 C.ar        1 LSW      -0.0747
     19 CAP        46.5329   17.4621  113.3866 C.2         1 LSW       0.0166
     20 CAQ        41.9194   18.7798  106.4457 C.3         1 LSW      -0.0354
     21 CAR        42.3270   17.3330  106.0569 C.3         1 LSW      -0.0123
     22 CAS        42.4428   16.3424  107.2489 C.3         1 LSW      -0.0410
     23 CAT        42.0986   12.3146  109.3475 C.3         1 LSW      -0.0125
     24 CAU        43.3462   16.8179  108.4231 C.3         1 LSW       0.0081
     25 CAW        46.5274   14.8706  113.1380 C.3         1 LSW      -0.0013
     26 NAX        45.3649   14.9949  110.9743 N.am        1 LSW      -0.2657
     27 CBB        47.3055   13.6494  111.0599 C.2         1 LSW       0.0613
     28 CBC        44.8350   15.9965  110.2910 C.2         1 LSW       0.2263
     29 CBD        41.6216   11.8896  107.9978 C.ar        1 LSW      -0.0427
     30 CBE        46.7505   16.1582  113.8409 C.2         1 LSW      -0.0424
     31 CBF        47.2806   17.6616  115.4305 C.ar        1 LSW       0.0603
     32 CBG        47.2029   16.2958  115.1532 C.ar        1 LSW      -0.0214
     33 CBI        43.6053   15.7385  109.5341 C.3         1 LSW       0.0683
     34 CBJ        46.6668   14.8898  111.5803 C.3         1 LSW       0.0987
     35 OXT        43.7750   13.0252  111.8378 O.co2       1 LSW      -0.5643
     36 NXZ        46.8781   18.3379  114.3478 N.pl3       1 LSW      -0.2891
     37 H1         42.6352   16.2898  111.2593 H           1 LSW       0.2052
     38 H2         41.6511   16.0998  109.9658 H           1 LSW       0.2052
     39 H3         40.9995   14.8053  111.5810 H           1 LSW       0.1027
     40 H4         40.8187   14.0650  109.1759 H           1 LSW       0.0361
     41 H5         40.3712   12.9494  110.4505 H           1 LSW       0.0361
     42 H6         40.7883   20.3464  105.7551 H           1 LSW       0.1994
     43 H7         40.1433   18.8412  105.4275 H           1 LSW       0.1994
     44 H8         41.4431   19.4097  104.5369 H           1 LSW       0.1994
     45 H9         40.3961   10.7430  104.5164 H           1 LSW       0.0559
     46 H10        42.6722   11.5407  104.8037 H           1 LSW       0.0599
     47 H11        38.8930   10.6581  106.4198 H           1 LSW       0.0599
     48 H12        48.3298   17.4992  118.6034 H           1 LSW       0.0530
     49 H13        48.1596   15.1137  118.1326 H           1 LSW       0.0510
     50 H14        43.4426   12.2688  106.9681 H           1 LSW       0.0557
     51 H15        39.6528   11.3634  108.6009 H           1 LSW       0.0557
     52 H16        47.7663   19.1292  116.8782 H           1 LSW       0.0541
     53 H17        47.4772   14.3444  115.9435 H           1 LSW       0.0540
     54 H18        46.1644   17.7308  112.4754 H           1 LSW       0.0795
     55 H19        41.4075   18.7859  107.4101 H           1 LSW       0.0813
     56 H20        42.8111   19.4055  106.5209 H           1 LSW       0.0813
     57 H21        43.2807   17.3673  105.5225 H           1 LSW       0.0317
     58 H22        41.5839   16.9287  105.3641 H           1 LSW       0.0317
     59 H23        42.8530   15.4083  106.8564 H           1 LSW       0.0270
     60 H24        41.4392   16.1321  107.6280 H           1 LSW       0.0270
     61 H25        42.0690   11.4436  110.0049 H           1 LSW       0.0429
     62 H26        43.1405   12.6316  109.2907 H           1 LSW       0.0429
     63 H27        42.8911   17.6995  108.8899 H           1 LSW       0.0346
     64 H28        44.3061   17.1250  107.9925 H           1 LSW       0.0346
     65 H29        45.5343   14.5087  113.4275 H           1 LSW       0.0390
     66 H30        47.2528   14.1631  113.5441 H           1 LSW       0.0390
     67 H31        44.8478   14.1760  110.9741 H           1 LSW       0.1878
     68 H32        43.7333   14.7846  109.0163 H           1 LSW       0.1099
     69 H33        47.3235   15.7136  111.2888 H           1 LSW       0.0741
     70 H34        46.8187   19.3038  114.2814 H           1 LSW       0.2216
@<TRIPOS>BOND
     1     1     3  ar
     2     4     1   1
     3     1    35  ar
     4     2     4   1
     5    33     2   1
     6     4     5   1
     7     5    23   1
     8    20     6   1
     9    27     7  ar
    10    28     8   2
    11    27     9  ar
    12    11    10  ar
    13    12    10  ar
    14    15    11  ar
    15    16    12  ar
    16    14    13  ar
    17    13    17  ar
    18    18    14  ar
    19    29    15  ar
    20    29    16  ar
    21    17    31  ar
    22    32    18  ar
    23    30    19   2
    24    19    36   1
    25    21    20   1
    26    22    21   1
    27    24    22   1
    28    23    29   1
    29    33    24   1
    30    30    25   1
    31    25    34   1
    32    26    28  am
    33    34    26   1
    34    34    27   1
    35    28    33   1
    36    30    32   1
    37    31    32  ar
    38    31    36   1
    39     2    37   1
    40     2    38   1
    41     4    39   1
    42     5    40   1
    43     5    41   1
    44     6    42   1
    45     6    43   1
    46     6    44   1
    47    10    45   1
    48    11    46   1
    49    12    47   1
    50    13    48   1
    51    14    49   1
    52    15    50   1
    53    16    51   1
    54    17    52   1
    55    18    53   1
    56    19    54   1
    57    20    55   1
    58    20    56   1
    59    21    57   1
    60    21    58   1
    61    22    59   1
    62    22    60   1
    63    23    61   1
    64    23    62   1
    65    24    63   1
    66    24    64   1
    67    25    65   1
    68    25    66   1
    69    26    67   1
    70    33    68   1
    71    34    69   1
    72    36    70   1
@<TRIPOS>SUBSTRUCTURE
     1  LSW      1

