@<TRIPOS>MOLECULE
3l3n_ligand_045
    70    72
SMALL
GAST_HUCK
****
This file was generated by PARSER (from files_GN.cpp)

@<TRIPOS>ATOM
      1 C          40.0914   18.4100  111.5600 C.2         1 LSW       0.0847
      2 N          41.3199   16.7977  110.3051 N.4         1 LSW       0.2599
      3 O          40.8626   18.3603  112.6731 O.co2       1 LSW      -0.5643
      4 CA         40.7146   18.1663  110.2322 C.3         1 LSW       0.0340
      5 CB         39.7667   18.4215  109.0009 C.3         1 LSW       0.0122
      6 NAA        44.5811   19.8392  105.1558 N.4         1 LSW       0.2185
      7 OAC        44.3627   12.1202  109.5434 O.co2       1 LSW      -0.5665
      8 OAD        42.2605   13.8591  109.0816 O.2         1 LSW      -0.3908
      9 OAF        46.2367   13.0016  110.5693 O.co2       1 LSW      -0.5665
     10 CAG        38.2001   23.4028  108.8735 C.ar        1 LSW      -0.0687
     11 CAH        37.8983   22.6839  107.7039 C.ar        1 LSW      -0.0686
     12 CAI        39.1401   22.8891  109.7829 C.ar        1 LSW      -0.0686
     13 CAJ        39.9165   16.1366  115.1542 C.ar        1 LSW      -0.0768
     14 CAK        41.2551   15.7647  115.4095 C.ar        1 LSW      -0.0792
     15 CAL        38.5257   21.4476  107.4550 C.ar        1 LSW      -0.0603
     16 CAM        39.7707   21.6544  109.5308 C.ar        1 LSW      -0.0603
     17 CAN        39.2613   15.6788  113.9949 C.ar        1 LSW      -0.0443
     18 CAO        41.9536   14.9297  114.5127 C.ar        1 LSW      -0.0747
     19 CAP        40.5366   13.4902  111.5024 C.2         1 LSW       0.0166
     20 CAQ        43.6826   18.8218  105.7251 C.3         1 LSW      -0.0354
     21 CAR        44.4542   17.5924  106.2770 C.3         1 LSW      -0.0123
     22 CAS        43.5813   16.5740  107.0681 C.3         1 LSW      -0.0410
     23 CAT        40.1500   19.6223  108.0691 C.3         1 LSW      -0.0125
     24 CAU        43.1091   17.0746  108.4671 C.3         1 LSW       0.0081
     25 CAW        42.9578   12.9127  112.0968 C.3         1 LSW      -0.0013
     26 NAX        43.4719   14.9096  110.6253 N.am        1 LSW      -0.2657
     27 CBB        44.8879   12.9670  110.4594 C.2         1 LSW       0.0613
     28 CBC        42.6235   14.9100  109.6003 C.2         1 LSW       0.2263
     29 CBD        39.4660   20.9104  108.3672 C.ar        1 LSW      -0.0427
     30 CBE        41.6541   13.5817  112.3406 C.2         1 LSW      -0.0424
     31 CBF        39.9613   14.8249  113.1280 C.ar        1 LSW       0.0603
     32 CBG        41.2816   14.4407  113.3753 C.ar        1 LSW      -0.0214
     33 CBI        42.0358   16.1710  109.1451 C.3         1 LSW       0.0683
     34 CBJ        44.0151   13.7846  111.3396 C.3         1 LSW       0.0987
     35 OXT        38.7840   18.7139  111.7374 O.co2       1 LSW      -0.5643
     36 NXZ        39.5501   14.2595  111.9869 N.pl3       1 LSW      -0.2891
     37 H1         40.5729   16.1515  110.5719 H           1 LSW       0.2052
     38 H2         41.9889   16.8318  111.0827 H           1 LSW       0.2052
     39 H3         41.5434   18.8710  110.1928 H           1 LSW       0.1027
     40 H4         38.7236   18.5315  109.3055 H           1 LSW       0.0361
     41 H5         39.7675   17.5285  108.3704 H           1 LSW       0.0361
     42 H6         44.0435   20.6927  104.9780 H           1 LSW       0.1994
     43 H7         44.9837   19.4980  104.2820 H           1 LSW       0.1994
     44 H8         45.3274   20.0544  105.8183 H           1 LSW       0.1994
     45 H9         37.7496   24.3024  109.0474 H           1 LSW       0.0559
     46 H10        37.2243   23.0618  107.0289 H           1 LSW       0.0599
     47 H11        39.3743   23.4231  110.6248 H           1 LSW       0.0599
     48 H12        39.4227   16.7446  115.8077 H           1 LSW       0.0530
     49 H13        41.7192   16.1112  116.2511 H           1 LSW       0.0510
     50 H14        38.2935   20.9501  106.5885 H           1 LSW       0.0557
     51 H15        40.4662   21.3136  110.1986 H           1 LSW       0.0557
     52 H16        38.2944   15.9395  113.8009 H           1 LSW       0.0541
     53 H17        42.9264   14.6673  114.7000 H           1 LSW       0.0540
     54 H18        40.4913   12.9622  110.6287 H           1 LSW       0.0795
     55 H19        42.9825   18.5065  104.9445 H           1 LSW       0.0813
     56 H20        43.1132   19.3057  106.5204 H           1 LSW       0.0813
     57 H21        45.2768   17.9337  106.9094 H           1 LSW       0.0317
     58 H22        44.8912   17.0637  105.4263 H           1 LSW       0.0317
     59 H23        44.1615   15.6590  107.2175 H           1 LSW       0.0270
     60 H24        42.7134   16.3171  106.4537 H           1 LSW       0.0270
     61 H25        39.9219   19.3158  107.0438 H           1 LSW       0.0429
     62 H26        41.2276   19.8015  108.0850 H           1 LSW       0.0429
     63 H27        42.6782   18.0622  108.3187 H           1 LSW       0.0346
     64 H28        43.9748   17.1963  109.1255 H           1 LSW       0.0346
     65 H29        42.7640   11.9972  111.5257 H           1 LSW       0.0390
     66 H30        43.3670   12.5941  113.0610 H           1 LSW       0.0390
     67 H31        43.6891   15.7800  111.0010 H           1 LSW       0.1878
     68 H32        41.2752   15.9373  108.3934 H           1 LSW       0.1099
     69 H33        44.6561   14.2256  112.1070 H           1 LSW       0.0741
     70 H34        38.6904   14.4243  111.5748 H           1 LSW       0.2216
@<TRIPOS>BOND
     1     1     3  ar
     2     4     1   1
     3     1    35  ar
     4     2     4   1
     5    33     2   1
     6     4     5   1
     7     5    23   1
     8    20     6   1
     9    27     7  ar
    10    28     8   2
    11    27     9  ar
    12    11    10  ar
    13    12    10  ar
    14    15    11  ar
    15    16    12  ar
    16    14    13  ar
    17    13    17  ar
    18    18    14  ar
    19    29    15  ar
    20    29    16  ar
    21    17    31  ar
    22    32    18  ar
    23    30    19   2
    24    19    36   1
    25    21    20   1
    26    22    21   1
    27    24    22   1
    28    23    29   1
    29    33    24   1
    30    30    25   1
    31    25    34   1
    32    26    28  am
    33    34    26   1
    34    34    27   1
    35    28    33   1
    36    30    32   1
    37    31    32  ar
    38    31    36   1
    39     2    37   1
    40     2    38   1
    41     4    39   1
    42     5    40   1
    43     5    41   1
    44     6    42   1
    45     6    43   1
    46     6    44   1
    47    10    45   1
    48    11    46   1
    49    12    47   1
    50    13    48   1
    51    14    49   1
    52    15    50   1
    53    16    51   1
    54    17    52   1
    55    18    53   1
    56    19    54   1
    57    20    55   1
    58    20    56   1
    59    21    57   1
    60    21    58   1
    61    22    59   1
    62    22    60   1
    63    23    61   1
    64    23    62   1
    65    24    63   1
    66    24    64   1
    67    25    65   1
    68    25    66   1
    69    26    67   1
    70    33    68   1
    71    34    69   1
    72    36    70   1
@<TRIPOS>SUBSTRUCTURE
     1  LSW      1

