@<TRIPOS>MOLECULE
3l3n_ligand_093
    70    72
SMALL
GAST_HUCK
****
This file was generated by PARSER (from files_GN.cpp)

@<TRIPOS>ATOM
      1 C          39.9540   17.3083  109.8620 C.2         1 LSW       0.0847
      2 N          39.7110   15.0410  109.3094 N.4         1 LSW       0.2599
      3 O          39.0701   17.8358  108.9751 O.co2       1 LSW      -0.5643
      4 CA         40.7345   16.0987  109.5048 C.3         1 LSW       0.0340
      5 CB         41.5834   16.3232  108.2100 C.3         1 LSW       0.0122
      6 NAA        36.2144   12.5778  105.7648 N.4         1 LSW       0.2185
      7 OAC        43.8580   13.9796  107.0580 O.co2       1 LSW      -0.5665
      8 OAD        41.5700   12.7687  107.3859 O.2         1 LSW      -0.3908
      9 OAF        45.6758   12.7653  107.8391 O.co2       1 LSW      -0.5665
     10 CAG        42.5650   19.7780  104.5477 C.ar        1 LSW      -0.0687
     11 CAH        43.7595   19.2072  105.0269 C.ar        1 LSW      -0.0686
     12 CAI        41.3716   19.6293  105.2775 C.ar        1 LSW      -0.0686
     13 CAJ        41.7854    7.4000  112.7341 C.ar        1 LSW      -0.0768
     14 CAK        42.1479    7.2922  111.3718 C.ar        1 LSW      -0.0792
     15 CAL        43.7551   18.4741  106.2306 C.ar        1 LSW      -0.0603
     16 CAM        41.3775   18.9306  106.4969 C.ar        1 LSW      -0.0603
     17 CAN        41.8727    8.6398  113.3987 C.ar        1 LSW      -0.0443
     18 CAO        42.6226    8.4208  110.6658 C.ar        1 LSW      -0.0747
     19 CAP        42.9442   11.7530  112.0559 C.2         1 LSW       0.0166
     20 CAQ        37.5327   12.5054  105.1244 C.3         1 LSW      -0.0354
     21 CAR        38.5145   11.5616  105.8700 C.3         1 LSW      -0.0123
     22 CAS        38.6998   11.8123  107.3894 C.3         1 LSW      -0.0410
     23 CAT        42.5306   17.5698  108.2628 C.3         1 LSW      -0.0125
     24 CAU        38.8868   13.3103  107.7738 C.3         1 LSW       0.0081
     25 CAW        43.6480   11.3046  109.5887 C.3         1 LSW      -0.0013
     26 NAX        42.3357   13.3682  109.3608 N.am        1 LSW      -0.2657
     27 CBB        44.3785   13.1309  107.9772 C.2         1 LSW       0.0613
     28 CBC        41.3436   13.2730  108.4829 C.2         1 LSW       0.2263
     29 CBD        42.5621   18.3213  106.9770 C.ar        1 LSW      -0.0427
     30 CBE        43.1102   10.9394  110.9277 C.2         1 LSW      -0.0424
     31 CBF        42.3264    9.7585  112.6759 C.ar        1 LSW       0.0603
     32 CBG        42.7090    9.6625  111.3335 C.ar        1 LSW      -0.0214
     33 CBI        39.9659   13.6285  108.8678 C.3         1 LSW       0.0683
     34 CBJ        43.6704   12.8307  109.2539 C.3         1 LSW       0.0987
     35 OXT        40.1121   17.9150  111.0651 O.co2       1 LSW      -0.5643
     36 NXZ        42.4792   11.0243  113.0820 N.pl3       1 LSW      -0.2891
     37 H1         39.0630   15.4446  108.6253 H           1 LSW       0.2052
     38 H2         39.1830   14.9772  110.1884 H           1 LSW       0.2052
     39 H3         41.3880   15.8476  110.3399 H           1 LSW       0.1027
     40 H4         40.8908   16.4014  107.3535 H           1 LSW       0.0361
     41 H5         42.2181   15.4332  108.0443 H           1 LSW       0.0361
     42 H6         35.5994   13.1672  105.2005 H           1 LSW       0.1994
     43 H7         36.3029   12.9815  106.6988 H           1 LSW       0.1994
     44 H8         35.8200   11.6389  105.8299 H           1 LSW       0.1994
     45 H9         42.5707   20.3079  103.6765 H           1 LSW       0.0559
     46 H10        44.6260   19.3232  104.4969 H           1 LSW       0.0599
     47 H11        40.5010   20.0314  104.9258 H           1 LSW       0.0599
     48 H12        41.4520    6.5775  113.2393 H           1 LSW       0.0530
     49 H13        42.0690    6.3900  110.8962 H           1 LSW       0.0510
     50 H14        44.6329   18.0541  106.5586 H           1 LSW       0.0557
     51 H15        40.5042   18.8603  107.0228 H           1 LSW       0.0557
     52 H16        41.6157    8.7284  114.3849 H           1 LSW       0.0541
     53 H17        42.8896    8.3379  109.6836 H           1 LSW       0.0540
     54 H18        43.1596   12.7493  112.1175 H           1 LSW       0.0795
     55 H19        37.9468   13.5131  105.0567 H           1 LSW       0.0813
     56 H20        37.3969   12.1342  104.1048 H           1 LSW       0.0813
     57 H21        39.4926   11.6416  105.3904 H           1 LSW       0.0317
     58 H22        38.1689   10.5348  105.7379 H           1 LSW       0.0317
     59 H23        39.5623   11.2314  107.7241 H           1 LSW       0.0270
     60 H24        37.8329   11.4158  107.9236 H           1 LSW       0.0270
     61 H25        43.5336   17.2226  108.5414 H           1 LSW       0.0429
     62 H26        42.2118   18.2718  109.0367 H           1 LSW       0.0429
     63 H27        37.9116   13.6710  108.1196 H           1 LSW       0.0346
     64 H28        39.1461   13.9050  106.8930 H           1 LSW       0.0346
     65 H29        43.0494   10.7897  108.8363 H           1 LSW       0.0390
     66 H30        44.6618   10.8998  109.5427 H           1 LSW       0.0390
     67 H31        42.1285   13.7905  110.2080 H           1 LSW       0.1878
     68 H32        39.7317   13.0072  109.7458 H           1 LSW       0.1099
     69 H33        44.2705   13.3268  110.0252 H           1 LSW       0.0741
     70 H34        42.2897   11.3594  113.9744 H           1 LSW       0.2216
@<TRIPOS>BOND
     1     1     3  ar
     2     4     1   1
     3     1    35  ar
     4     2     4   1
     5    33     2   1
     6     4     5   1
     7     5    23   1
     8    20     6   1
     9    27     7  ar
    10    28     8   2
    11    27     9  ar
    12    11    10  ar
    13    12    10  ar
    14    15    11  ar
    15    16    12  ar
    16    14    13  ar
    17    13    17  ar
    18    18    14  ar
    19    29    15  ar
    20    29    16  ar
    21    17    31  ar
    22    32    18  ar
    23    30    19   2
    24    19    36   1
    25    21    20   1
    26    22    21   1
    27    24    22   1
    28    23    29   1
    29    33    24   1
    30    30    25   1
    31    25    34   1
    32    26    28  am
    33    34    26   1
    34    34    27   1
    35    28    33   1
    36    30    32   1
    37    31    32  ar
    38    31    36   1
    39     2    37   1
    40     2    38   1
    41     4    39   1
    42     5    40   1
    43     5    41   1
    44     6    42   1
    45     6    43   1
    46     6    44   1
    47    10    45   1
    48    11    46   1
    49    12    47   1
    50    13    48   1
    51    14    49   1
    52    15    50   1
    53    16    51   1
    54    17    52   1
    55    18    53   1
    56    19    54   1
    57    20    55   1
    58    20    56   1
    59    21    57   1
    60    21    58   1
    61    22    59   1
    62    22    60   1
    63    23    61   1
    64    23    62   1
    65    24    63   1
    66    24    64   1
    67    25    65   1
    68    25    66   1
    69    26    67   1
    70    33    68   1
    71    34    69   1
    72    36    70   1
@<TRIPOS>SUBSTRUCTURE
     1  LSW      1

