@<TRIPOS>MOLECULE
3l3n_ligand_073
    70    72
SMALL
GAST_HUCK
****
This file was generated by PARSER (from files_GN.cpp)

@<TRIPOS>ATOM
      1 C          42.6836   11.8166  112.8401 C.2         1 LSW       0.0847
      2 N          40.7476   12.0803  111.3086 N.4         1 LSW       0.2599
      3 O          43.1457   12.7023  113.7632 O.co2       1 LSW      -0.5643
      4 CA         41.2295   11.6621  112.6613 C.3         1 LSW       0.0340
      5 CB         40.6963   10.2537  113.0913 C.3         1 LSW       0.0122
      6 NAA        41.4412   15.2827  115.0840 N.4         1 LSW       0.2185
      7 OAC        46.6993   13.2259  110.1994 O.co2       1 LSW      -0.5665
      8 OAD        42.3916   14.7801  109.5073 O.2         1 LSW      -0.3908
      9 OAF        45.0849   14.8333  110.5909 O.co2       1 LSW      -0.5665
     10 CAG        44.3932    7.3680  110.7297 C.ar        1 LSW      -0.0687
     11 CAH        44.1663    7.5806  112.1021 C.ar        1 LSW      -0.0686
     12 CAI        43.4077    7.7315  109.7926 C.ar        1 LSW      -0.0686
     13 CAJ        40.3787    9.9291  106.4011 C.ar        1 LSW      -0.0768
     14 CAK        41.5698    9.5565  107.0564 C.ar        1 LSW      -0.0792
     15 CAL        42.9528    8.1394  112.5363 C.ar        1 LSW      -0.0603
     16 CAM        42.2109    8.3289  110.2278 C.ar        1 LSW      -0.0603
     17 CAN        40.1715   11.2691  106.0129 C.ar        1 LSW      -0.0443
     18 CAO        42.5538   10.5180  107.3623 C.ar        1 LSW      -0.0747
     19 CAP        42.3438   14.0367  106.5224 C.2         1 LSW       0.0166
     20 CAQ        39.9904   15.1106  115.1701 C.3         1 LSW      -0.0354
     21 CAR        39.2380   15.4324  113.8495 C.3         1 LSW      -0.0123
     22 CAS        39.4255   14.4083  112.6939 C.3         1 LSW      -0.0410
     23 CAT        40.6614    9.0915  112.0615 C.3         1 LSW      -0.0125
     24 CAU        40.7174   14.6012  111.8521 C.3         1 LSW       0.0081
     25 CAW        44.4068   13.2409  107.7992 C.3         1 LSW      -0.0013
     26 NAX        43.1550   12.7599  109.9602 N.am        1 LSW      -0.2657
     27 CBB        45.4119   13.6122  110.0916 C.2         1 LSW       0.0613
     28 CBC        42.2297   13.7072  110.0792 C.2         1 LSW       0.2263
     29 CBD        41.9631    8.5429  111.6070 C.ar        1 LSW      -0.0427
     30 CBE        43.1088   13.0223  107.1044 C.2         1 LSW      -0.0424
     31 CBF        41.1726   12.2111  106.2991 C.ar        1 LSW       0.0603
     32 CBG        42.3545   11.8545  106.9593 C.ar        1 LSW      -0.0214
     33 CBI        40.9657   13.4806  110.7883 C.3         1 LSW       0.0683
     34 CBJ        44.4349   12.8192  109.3047 C.3         1 LSW       0.0987
     35 OXT        43.5637   11.2375  111.9898 O.co2       1 LSW      -0.5643
     36 NXZ        41.2020   13.5249  106.0484 N.pl3       1 LSW      -0.2891
     37 H1         39.7367   11.9426  111.3137 H           1 LSW       0.2052
     38 H2         41.1250   11.4206  110.6223 H           1 LSW       0.2052
     39 H3         40.7665   12.3419  113.3820 H           1 LSW       0.1027
     40 H4         39.6633   10.3855  113.4223 H           1 LSW       0.0361
     41 H5         41.2431    9.9310  113.9814 H           1 LSW       0.0361
     42 H6         41.8611   15.1565  116.0091 H           1 LSW       0.1994
     43 H7         41.6563   16.2218  114.7410 H           1 LSW       0.1994
     44 H8         41.8328   14.5910  114.4438 H           1 LSW       0.1994
     45 H9         45.2614    6.9352  110.4105 H           1 LSW       0.0559
     46 H10        44.8785    7.3135  112.7842 H           1 LSW       0.0599
     47 H11        43.5608    7.5555  108.7996 H           1 LSW       0.0599
     48 H12        39.6582    9.2312  106.2033 H           1 LSW       0.0530
     49 H13        41.7130    8.5781  107.3155 H           1 LSW       0.0510
     50 H14        42.8055    8.2582  113.5397 H           1 LSW       0.0557
     51 H15        41.5071    8.5765  109.5341 H           1 LSW       0.0557
     52 H16        39.3112   11.5545  105.5412 H           1 LSW       0.0541
     53 H17        43.3975   10.2418  107.8615 H           1 LSW       0.0540
     54 H18        42.5950   15.0289  106.4816 H           1 LSW       0.0795
     55 H19        39.6277   15.7834  115.9531 H           1 LSW       0.0813
     56 H20        39.7840   14.0835  115.4811 H           1 LSW       0.0813
     57 H21        39.5115   16.4380  113.5120 H           1 LSW       0.0317
     58 H22        38.1713   15.4499  114.0969 H           1 LSW       0.0317
     59 H23        38.5837   14.5058  112.0034 H           1 LSW       0.0270
     60 H24        39.3824   13.3994  113.1175 H           1 LSW       0.0270
     61 H25        40.0515    9.4177  111.2147 H           1 LSW       0.0429
     62 H26        40.1235    8.2613  112.5311 H           1 LSW       0.0429
     63 H27        41.5952   14.6683  112.4905 H           1 LSW       0.0346
     64 H28        40.6287   15.5680  111.3407 H           1 LSW       0.0346
     65 H29        44.6692   14.3034  107.7182 H           1 LSW       0.0390
     66 H30        45.1850   12.6887  107.2616 H           1 LSW       0.0390
     67 H31        42.9441   11.9067  110.3654 H           1 LSW       0.1878
     68 H32        40.1930   13.6079  110.0214 H           1 LSW       0.1099
     69 H33        44.7995   11.7877  109.3290 H           1 LSW       0.0741
     70 H34        40.4958   14.0328  105.6180 H           1 LSW       0.2216
@<TRIPOS>BOND
     1     1     3  ar
     2     4     1   1
     3     1    35  ar
     4     2     4   1
     5    33     2   1
     6     4     5   1
     7     5    23   1
     8    20     6   1
     9    27     7  ar
    10    28     8   2
    11    27     9  ar
    12    11    10  ar
    13    12    10  ar
    14    15    11  ar
    15    16    12  ar
    16    14    13  ar
    17    13    17  ar
    18    18    14  ar
    19    29    15  ar
    20    29    16  ar
    21    17    31  ar
    22    32    18  ar
    23    30    19   2
    24    19    36   1
    25    21    20   1
    26    22    21   1
    27    24    22   1
    28    23    29   1
    29    33    24   1
    30    30    25   1
    31    25    34   1
    32    26    28  am
    33    34    26   1
    34    34    27   1
    35    28    33   1
    36    30    32   1
    37    31    32  ar
    38    31    36   1
    39     2    37   1
    40     2    38   1
    41     4    39   1
    42     5    40   1
    43     5    41   1
    44     6    42   1
    45     6    43   1
    46     6    44   1
    47    10    45   1
    48    11    46   1
    49    12    47   1
    50    13    48   1
    51    14    49   1
    52    15    50   1
    53    16    51   1
    54    17    52   1
    55    18    53   1
    56    19    54   1
    57    20    55   1
    58    20    56   1
    59    21    57   1
    60    21    58   1
    61    22    59   1
    62    22    60   1
    63    23    61   1
    64    23    62   1
    65    24    63   1
    66    24    64   1
    67    25    65   1
    68    25    66   1
    69    26    67   1
    70    33    68   1
    71    34    69   1
    72    36    70   1
@<TRIPOS>SUBSTRUCTURE
     1  LSW      1

