@<TRIPOS>MOLECULE
3l3n_ligand_000
    70    72
SMALL
GAST_HUCK
****
This file was generated by PARSER (from files_GN.cpp)

@<TRIPOS>ATOM
      1 C          47.1025   13.8039  110.9296 C.2         1 LSW       0.0847
      2 N          44.9670   14.5091  111.9883 N.4         1 LSW       0.2599
      3 O          48.3298   13.4029  111.3553 O.co2       1 LSW      -0.5643
      4 CA         46.3328   14.9210  111.5542 C.3         1 LSW       0.0340
      5 CB         47.0703   15.4982  112.8123 C.3         1 LSW       0.0122
      6 NAA        40.9625    8.5487  112.7626 N.4         1 LSW       0.2185
      7 OAC        42.4477   16.8540  106.7952 O.co2       1 LSW      -0.5665
      8 OAD        43.4874   13.8291  108.9429 O.2         1 LSW      -0.3908
      9 OAF        44.3294   16.6890  108.1390 O.co2       1 LSW      -0.5665
     10 CAG        48.0384   17.9103  117.3155 C.ar        1 LSW      -0.0687
     11 CAH        47.7949   18.8345  116.2826 C.ar        1 LSW      -0.0686
     12 CAI        47.7224   16.5513  117.1279 C.ar        1 LSW      -0.0686
     13 CAJ        38.8500   20.4548  106.0190 C.ar        1 LSW      -0.0768
     14 CAK        40.2428   20.4374  106.2575 C.ar        1 LSW      -0.0792
     15 CAL        47.2413   18.4008  115.0634 C.ar        1 LSW      -0.0603
     16 CAM        47.1656   16.1232  115.9103 C.ar        1 LSW      -0.0603
     17 CAN        37.9834   19.6621  106.8009 C.ar        1 LSW      -0.0443
     18 CAO        40.7847   19.6238  107.2759 C.ar        1 LSW      -0.0747
     19 CAP        38.8747   17.4202  109.4177 C.2         1 LSW       0.0166
     20 CAQ        42.1578    9.3161  113.1246 C.3         1 LSW      -0.0354
     21 CAR        41.9385   10.8576  113.1297 C.3         1 LSW      -0.0123
     22 CAS        42.5276   11.5969  111.8909 C.3         1 LSW      -0.0410
     23 CAT        46.2674   16.5710  113.6067 C.3         1 LSW      -0.0125
     24 CAU        42.9232   13.0870  112.1569 C.3         1 LSW       0.0081
     25 CAW        41.4121   17.5360  109.7530 C.3         1 LSW      -0.0013
     26 NAX        42.8391   15.5544  110.1860 N.am        1 LSW      -0.2657
     27 CBB        42.9813   16.6334  108.0174 C.2         1 LSW       0.0613
     28 CBC        43.4490   14.3803  110.0406 C.2         1 LSW       0.2263
     29 CBD        46.9262   17.0369  114.8582 C.ar        1 LSW      -0.0427
     30 CBE        40.1406   17.9081  109.0754 C.2         1 LSW      -0.0424
     31 CBF        38.5390   18.8430  107.7985 C.ar        1 LSW       0.0603
     32 CBG        39.9186   18.8144  108.0365 C.ar        1 LSW      -0.0214
     33 CBI        44.0243   13.6722  111.1880 C.3         1 LSW       0.0683
     34 CBJ        42.1115   16.2690  109.1631 C.3         1 LSW       0.0987
     35 OXT        46.5905   13.1725  109.8493 O.co2       1 LSW      -0.5643
     36 NXZ        37.9376   17.9968  108.6460 N.pl3       1 LSW      -0.2891
     37 H1         44.4553   15.3685  112.2133 H           1 LSW       0.2052
     38 H2         45.1257   13.9987  112.8549 H           1 LSW       0.2052
     39 H3         46.2369   15.7298  110.8209 H           1 LSW       0.1027
     40 H4         48.0134   15.9502  112.4965 H           1 LSW       0.0361
     41 H5         47.3172   14.6717  113.4858 H           1 LSW       0.0361
     42 H6         41.2254    7.5705  112.6188 H           1 LSW       0.1994
     43 H7         40.5479    8.9166  111.9019 H           1 LSW       0.1994
     44 H8         40.2837    8.5990  113.5304 H           1 LSW       0.1994
     45 H9         48.4379   18.2230  118.2038 H           1 LSW       0.0559
     46 H10        48.0100   19.8246  116.4247 H           1 LSW       0.0599
     47 H11        47.8786   15.8795  117.8828 H           1 LSW       0.0599
     48 H12        38.4678   21.0432  105.2776 H           1 LSW       0.0530
     49 H13        40.8599   21.0160  105.6892 H           1 LSW       0.0510
     50 H14        47.0494   19.0927  114.3358 H           1 LSW       0.0557
     51 H15        46.9152   15.1366  115.8081 H           1 LSW       0.0557
     52 H16        36.9758   19.6678  106.6354 H           1 LSW       0.0541
     53 H17        41.7899   19.6144  107.4445 H           1 LSW       0.0540
     54 H18        38.6821   16.7374  110.1545 H           1 LSW       0.0795
     55 H19        42.9606    9.0389  112.4364 H           1 LSW       0.0813
     56 H20        42.4605    8.9846  114.1211 H           1 LSW       0.0813
     57 H21        42.4129   11.2446  114.0370 H           1 LSW       0.0317
     58 H22        40.8721   11.0849  113.2084 H           1 LSW       0.0317
     59 H23        41.8028   11.5558  111.0712 H           1 LSW       0.0270
     60 H24        43.4163   11.0434  111.5678 H           1 LSW       0.0270
     61 H25        45.3000   16.1677  113.9117 H           1 LSW       0.0429
     62 H26        46.0687   17.4096  112.9350 H           1 LSW       0.0429
     63 H27        43.3035   13.1541  113.1824 H           1 LSW       0.0346
     64 H28        42.0163   13.7044  112.1322 H           1 LSW       0.0346
     65 H29        41.1758   17.3593  110.8059 H           1 LSW       0.0390
     66 H30        42.0924   18.3933  109.7380 H           1 LSW       0.0390
     67 H31        42.8410   15.9397  111.0767 H           1 LSW       0.1878
     68 H32        44.6335   12.8350  110.8124 H           1 LSW       0.1099
     69 H33        41.3356   15.5861  108.7977 H           1 LSW       0.0741
     70 H34        36.9792   17.8364  108.6995 H           1 LSW       0.2216
@<TRIPOS>BOND
     1     1     3  ar
     2     4     1   1
     3     1    35  ar
     4     2     4   1
     5    33     2   1
     6     4     5   1
     7     5    23   1
     8    20     6   1
     9    27     7  ar
    10    28     8   2
    11    27     9  ar
    12    11    10  ar
    13    12    10  ar
    14    15    11  ar
    15    16    12  ar
    16    14    13  ar
    17    13    17  ar
    18    18    14  ar
    19    29    15  ar
    20    29    16  ar
    21    17    31  ar
    22    32    18  ar
    23    30    19   2
    24    19    36   1
    25    21    20   1
    26    22    21   1
    27    24    22   1
    28    23    29   1
    29    33    24   1
    30    30    25   1
    31    25    34   1
    32    26    28  am
    33    34    26   1
    34    34    27   1
    35    28    33   1
    36    30    32   1
    37    31    32  ar
    38    31    36   1
    39     2    37   1
    40     2    38   1
    41     4    39   1
    42     5    40   1
    43     5    41   1
    44     6    42   1
    45     6    43   1
    46     6    44   1
    47    10    45   1
    48    11    46   1
    49    12    47   1
    50    13    48   1
    51    14    49   1
    52    15    50   1
    53    16    51   1
    54    17    52   1
    55    18    53   1
    56    19    54   1
    57    20    55   1
    58    20    56   1
    59    21    57   1
    60    21    58   1
    61    22    59   1
    62    22    60   1
    63    23    61   1
    64    23    62   1
    65    24    63   1
    66    24    64   1
    67    25    65   1
    68    25    66   1
    69    26    67   1
    70    33    68   1
    71    34    69   1
    72    36    70   1
@<TRIPOS>SUBSTRUCTURE
     1  LSW      1

