@<TRIPOS>MOLECULE
3l3n_ligand_074
    70    72
SMALL
GAST_HUCK
****
This file was generated by PARSER (from files_GN.cpp)

@<TRIPOS>ATOM
      1 C          40.3204   16.8176  111.4730 C.2         1 LSW       0.0847
      2 N          42.0713   16.5373  109.9089 N.4         1 LSW       0.2599
      3 O          39.7133   18.0178  111.6089 O.co2       1 LSW      -0.5643
      4 CA         40.6141   16.2539  110.1401 C.3         1 LSW       0.0340
      5 CB         40.1526   14.7521  110.0613 C.3         1 LSW       0.0122
      6 NAA        43.5598   19.7443  104.2759 N.4         1 LSW       0.2185
      7 OAC        43.0879   13.4332  113.4755 O.co2       1 LSW      -0.5665
      8 OAD        43.7868   13.5495  109.5828 O.2         1 LSW      -0.3908
      9 OAF        44.2402   15.2869  114.2492 O.co2       1 LSW      -0.5665
     10 CAG        42.0879   10.6690  107.4382 C.ar        1 LSW      -0.0687
     11 CAH        41.9768   11.7557  106.5528 C.ar        1 LSW      -0.0686
     12 CAI        41.4740   10.7301  108.7072 C.ar        1 LSW      -0.0686
     13 CAJ        48.1205   16.3839  117.0396 C.ar        1 LSW      -0.0768
     14 CAK        48.0908   15.0507  116.5703 C.ar        1 LSW      -0.0792
     15 CAL        41.2627   12.9024  106.9356 C.ar        1 LSW      -0.0603
     16 CAM        40.7549   11.8792  109.0841 C.ar        1 LSW      -0.0603
     17 CAN        47.6831   17.4398  116.2158 C.ar        1 LSW      -0.0443
     18 CAO        47.6497   14.7607  115.2604 C.ar        1 LSW      -0.0747
     19 CAP        46.4063   17.2236  112.8972 C.2         1 LSW       0.0166
     20 CAQ        42.9718   18.5037  104.8060 C.3         1 LSW      -0.0354
     21 CAR        43.8291   17.9155  105.9568 C.3         1 LSW      -0.0123
     22 CAS        42.9714   17.1092  106.9727 C.3         1 LSW      -0.0410
     23 CAT        39.8674   14.2006  108.6151 C.3         1 LSW      -0.0125
     24 CAU        43.8092   16.4214  108.0921 C.3         1 LSW       0.0081
     25 CAW        46.4018   14.7435  112.2244 C.3         1 LSW      -0.0013
     26 NAX        44.2341   15.1428  111.0799 N.am        1 LSW      -0.2657
     27 CBB        44.1053   14.3164  113.3101 C.2         1 LSW       0.0613
     28 CBC        43.6804   14.7233  109.9360 C.2         1 LSW       0.2263
     29 CBD        40.6479   12.9920  108.2157 C.ar        1 LSW      -0.0427
     30 CBE        46.6743   15.8724  113.1462 C.2         1 LSW      -0.0424
     31 CBF        47.2252   17.1353  114.9211 C.ar        1 LSW       0.0603
     32 CBG        47.2134   15.8276  114.4381 C.ar        1 LSW      -0.0214
     33 CBI        42.9054   15.6205  109.0801 C.3         1 LSW       0.0683
     34 CBJ        44.9014   14.3215  112.0563 C.3         1 LSW       0.0987
     35 OXT        40.7131   16.1632  112.5949 O.co2       1 LSW      -0.5643
     36 NXZ        46.7561   17.9530  113.9726 N.pl3       1 LSW      -0.2891
     37 H1         42.5143   16.6405  110.8315 H           1 LSW       0.2052
     38 H2         42.0961   17.4606  109.4647 H           1 LSW       0.2052
     39 H3         40.0480   16.8429  109.4049 H           1 LSW       0.1027
     40 H4         39.2145   14.6328  110.6167 H           1 LSW       0.0361
     41 H5         40.8918   14.1225  110.5797 H           1 LSW       0.0361
     42 H6         43.0224   20.0539  103.4635 H           1 LSW       0.1994
     43 H7         44.5310   19.5801  103.9959 H           1 LSW       0.1994
     44 H8         43.5278   20.4710  104.9960 H           1 LSW       0.1994
     45 H9         42.6043    9.8345  107.1526 H           1 LSW       0.0559
     46 H10        42.4087   11.7150  105.6241 H           1 LSW       0.0599
     47 H11        41.5590    9.9345  109.3413 H           1 LSW       0.0599
     48 H12        48.4367   16.5764  117.9956 H           1 LSW       0.0530
     49 H13        48.4096   14.2827  117.1740 H           1 LSW       0.0510
     50 H14        41.1923   13.6873  106.2813 H           1 LSW       0.0557
     51 H15        40.3135   11.8951  110.0082 H           1 LSW       0.0557
     52 H16        47.6842   18.4003  116.5641 H           1 LSW       0.0541
     53 H17        47.6285   13.8009  114.9191 H           1 LSW       0.0540
     54 H18        46.0041   17.6032  112.0465 H           1 LSW       0.0795
     55 H19        42.8889   17.7792  103.9932 H           1 LSW       0.0813
     56 H20        41.9651   18.7474  105.1564 H           1 LSW       0.0813
     57 H21        44.3283   18.7330  106.4827 H           1 LSW       0.0317
     58 H22        44.5954   17.2650  105.5261 H           1 LSW       0.0317
     59 H23        42.4205   16.3426  106.4172 H           1 LSW       0.0270
     60 H24        42.2481   17.7950  107.4299 H           1 LSW       0.0270
     61 H25        40.0223   14.9933  107.8775 H           1 LSW       0.0429
     62 H26        38.8084   13.9286  108.5391 H           1 LSW       0.0429
     63 H27        44.3855   17.1735  108.6472 H           1 LSW       0.0346
     64 H28        44.5158   15.7376  107.6096 H           1 LSW       0.0346
     65 H29        46.9672   13.8767  112.5705 H           1 LSW       0.0390
     66 H30        46.8138   15.0057  111.2440 H           1 LSW       0.0390
     67 H31        44.0814   16.0716  111.3298 H           1 LSW       0.1878
     68 H32        42.2521   15.0127  108.4496 H           1 LSW       0.1099
     69 H33        44.9396   13.2834  111.7034 H           1 LSW       0.0741
     70 H34        46.6761   18.9168  114.0575 H           1 LSW       0.2216
@<TRIPOS>BOND
     1     1     3  ar
     2     4     1   1
     3     1    35  ar
     4     2     4   1
     5    33     2   1
     6     4     5   1
     7     5    23   1
     8    20     6   1
     9    27     7  ar
    10    28     8   2
    11    27     9  ar
    12    11    10  ar
    13    12    10  ar
    14    15    11  ar
    15    16    12  ar
    16    14    13  ar
    17    13    17  ar
    18    18    14  ar
    19    29    15  ar
    20    29    16  ar
    21    17    31  ar
    22    32    18  ar
    23    30    19   2
    24    19    36   1
    25    21    20   1
    26    22    21   1
    27    24    22   1
    28    23    29   1
    29    33    24   1
    30    30    25   1
    31    25    34   1
    32    26    28  am
    33    34    26   1
    34    34    27   1
    35    28    33   1
    36    30    32   1
    37    31    32  ar
    38    31    36   1
    39     2    37   1
    40     2    38   1
    41     4    39   1
    42     5    40   1
    43     5    41   1
    44     6    42   1
    45     6    43   1
    46     6    44   1
    47    10    45   1
    48    11    46   1
    49    12    47   1
    50    13    48   1
    51    14    49   1
    52    15    50   1
    53    16    51   1
    54    17    52   1
    55    18    53   1
    56    19    54   1
    57    20    55   1
    58    20    56   1
    59    21    57   1
    60    21    58   1
    61    22    59   1
    62    22    60   1
    63    23    61   1
    64    23    62   1
    65    24    63   1
    66    24    64   1
    67    25    65   1
    68    25    66   1
    69    26    67   1
    70    33    68   1
    71    34    69   1
    72    36    70   1
@<TRIPOS>SUBSTRUCTURE
     1  LSW      1

