@<TRIPOS>MOLECULE
3l3n_ligand_001
    70    72
SMALL
GAST_HUCK
****
This file was generated by PARSER (from files_GN.cpp)

@<TRIPOS>ATOM
      1 C          47.0545   13.6778  111.0767 C.2         1 LSW       0.0847
      2 N          44.8998   14.4735  112.0878 N.4         1 LSW       0.2599
      3 O          46.5584   13.0232  110.0069 O.co2       1 LSW      -0.5643
      4 CA         46.2932   14.8218  111.6744 C.3         1 LSW       0.0340
      5 CB         47.0474   15.4239  112.9057 C.3         1 LSW       0.0122
      6 NAA        39.4330   15.8901  113.8273 N.4         1 LSW       0.2185
      7 OAC        44.3101   16.5265  106.7136 O.co2       1 LSW      -0.5665
      8 OAD        43.6687   13.6384  108.9286 O.2         1 LSW      -0.3908
      9 OAF        45.2652   17.0279  108.7746 O.co2       1 LSW      -0.5665
     10 CAG        48.1216   17.7374  117.4059 C.ar        1 LSW      -0.0687
     11 CAH        47.7525   16.4006  117.1941 C.ar        1 LSW      -0.0686
     12 CAI        47.9053   18.6935  116.3920 C.ar        1 LSW      -0.0686
     13 CAJ        39.9021   22.3475  108.2432 C.ar        1 LSW      -0.0768
     14 CAK        39.8612   21.5989  109.4402 C.ar        1 LSW      -0.0792
     15 CAL        47.1744   16.0156  115.9685 C.ar        1 LSW      -0.0603
     16 CAM        47.3193   18.3069  115.1738 C.ar        1 LSW      -0.0603
     17 CAN        40.4964   21.8053  107.0869 C.ar        1 LSW      -0.0443
     18 CAO        40.4228   20.3059  109.5006 C.ar        1 LSW      -0.0747
     19 CAP        42.0451   18.6164  106.7410 C.2         1 LSW       0.0166
     20 CAQ        39.6839   14.4752  114.1299 C.3         1 LSW      -0.0354
     21 CAR        40.3821   13.7416  112.9579 C.3         1 LSW      -0.0123
     22 CAS        41.7689   14.3175  112.5651 C.3         1 LSW      -0.0410
     23 CAT        46.2872   16.5382  113.6747 C.3         1 LSW      -0.0125
     24 CAU        42.7046   13.2109  111.9914 C.3         1 LSW       0.0081
     25 CAW        41.9840   17.5355  109.1171 C.3         1 LSW      -0.0013
     26 NAX        43.2455   15.5888  109.9119 N.am        1 LSW      -0.2657
     27 CBB        44.1580   16.7356  108.0458 C.2         1 LSW       0.0613
     28 CBC        43.6442   14.3336  109.9580 C.2         1 LSW       0.2263
     29 CBD        46.9523   16.9588  114.9375 C.ar        1 LSW      -0.0427
     30 CBE        41.7059   18.5830  108.1003 C.2         1 LSW      -0.0424
     31 CBF        41.0362   20.5149  107.1523 C.ar        1 LSW       0.0603
     32 CBG        41.0261   19.7811  108.3402 C.ar        1 LSW      -0.0214
     33 CBI        43.9780   13.6696  111.2179 C.3         1 LSW       0.0683
     34 CBJ        42.8961   16.3378  108.7217 C.3         1 LSW       0.0987
     35 OXT        48.3460   13.4113  111.3971 O.co2       1 LSW      -0.5643
     36 NXZ        41.6446   19.7855  106.2061 N.pl3       1 LSW      -0.2891
     37 H1         44.4121   15.3559  112.2654 H           1 LSW       0.2052
     38 H2         44.9823   13.9753  112.9757 H           1 LSW       0.2052
     39 H3         46.2384   15.6104  110.9167 H           1 LSW       0.1027
     40 H4         48.0009   15.8466  112.5689 H           1 LSW       0.0361
     41 H5         47.2829   14.6129  113.6004 H           1 LSW       0.0361
     42 H6         38.9358   16.3224  114.6137 H           1 LSW       0.1994
     43 H7         38.8499   15.9642  112.9823 H           1 LSW       0.1994
     44 H8         40.3198   16.3759  113.6782 H           1 LSW       0.1994
     45 H9         48.5411   18.0177  118.2960 H           1 LSW       0.0559
     46 H10        47.8953   15.7044  117.9304 H           1 LSW       0.0599
     47 H11        48.1664   19.6690  116.5517 H           1 LSW       0.0599
     48 H12        39.4987   23.2846  108.2097 H           1 LSW       0.0530
     49 H13        39.4297   22.0013  110.2752 H           1 LSW       0.0510
     50 H14        46.9065   15.0380  115.8419 H           1 LSW       0.0557
     51 H15        47.1526   19.0187  114.4594 H           1 LSW       0.0557
     52 H16        40.5495   22.3394  106.2182 H           1 LSW       0.0541
     53 H17        40.4088   19.7746  110.3762 H           1 LSW       0.0540
     54 H18        42.5281   17.8809  106.2006 H           1 LSW       0.0795
     55 H19        38.7262   13.9950  114.3320 H           1 LSW       0.0813
     56 H20        40.2994   14.4085  115.0347 H           1 LSW       0.0813
     57 H21        39.7208   13.7763  112.0841 H           1 LSW       0.0317
     58 H22        40.4893   12.6970  113.2501 H           1 LSW       0.0317
     59 H23        42.2486   14.7615  113.4471 H           1 LSW       0.0270
     60 H24        41.6333   15.1011  111.8185 H           1 LSW       0.0270
     61 H25        45.2894   16.1852  113.9436 H           1 LSW       0.0429
     62 H26        46.1642   17.3899  112.9968 H           1 LSW       0.0429
     63 H27        42.1230   12.5615  111.3257 H           1 LSW       0.0346
     64 H28        43.0375   12.5890  112.8346 H           1 LSW       0.0346
     65 H29        41.0145   17.1234  109.4241 H           1 LSW       0.0390
     66 H30        42.4116   18.0185  110.0026 H           1 LSW       0.0390
     67 H31        43.2362   16.0745  110.7621 H           1 LSW       0.1878
     68 H32        44.5042   12.7305  110.9974 H           1 LSW       0.1099
     69 H33        42.3034   15.6825  108.0570 H           1 LSW       0.0741
     70 H34        41.7783   20.0541  105.2854 H           1 LSW       0.2216
@<TRIPOS>BOND
     1     1     3  ar
     2     4     1   1
     3     1    35  ar
     4     2     4   1
     5    33     2   1
     6     4     5   1
     7     5    23   1
     8    20     6   1
     9    27     7  ar
    10    28     8   2
    11    27     9  ar
    12    11    10  ar
    13    12    10  ar
    14    15    11  ar
    15    16    12  ar
    16    14    13  ar
    17    13    17  ar
    18    18    14  ar
    19    29    15  ar
    20    29    16  ar
    21    17    31  ar
    22    32    18  ar
    23    30    19   2
    24    19    36   1
    25    21    20   1
    26    22    21   1
    27    24    22   1
    28    23    29   1
    29    33    24   1
    30    30    25   1
    31    25    34   1
    32    26    28  am
    33    34    26   1
    34    34    27   1
    35    28    33   1
    36    30    32   1
    37    31    32  ar
    38    31    36   1
    39     2    37   1
    40     2    38   1
    41     4    39   1
    42     5    40   1
    43     5    41   1
    44     6    42   1
    45     6    43   1
    46     6    44   1
    47    10    45   1
    48    11    46   1
    49    12    47   1
    50    13    48   1
    51    14    49   1
    52    15    50   1
    53    16    51   1
    54    17    52   1
    55    18    53   1
    56    19    54   1
    57    20    55   1
    58    20    56   1
    59    21    57   1
    60    21    58   1
    61    22    59   1
    62    22    60   1
    63    23    61   1
    64    23    62   1
    65    24    63   1
    66    24    64   1
    67    25    65   1
    68    25    66   1
    69    26    67   1
    70    33    68   1
    71    34    69   1
    72    36    70   1
@<TRIPOS>SUBSTRUCTURE
     1  LSW      1

