@<TRIPOS>MOLECULE
3l3n_ligand_035
    70    72
SMALL
GAST_HUCK
****
This file was generated by PARSER (from files_GN.cpp)

@<TRIPOS>ATOM
      1 C          41.3932   18.0434  111.0907 C.2         1 LSW       0.0847
      2 N          41.6297   16.2500  109.5165 N.4         1 LSW       0.2599
      3 O          40.9680   17.3435  112.1692 O.co2       1 LSW      -0.5643
      4 CA         41.0396   17.6036  109.7218 C.3         1 LSW       0.0340
      5 CB         39.4926   17.6722  109.5103 C.3         1 LSW       0.0122
      6 NAA        42.4896   19.7868  104.4360 N.4         1 LSW       0.2185
      7 OAC        40.8680   12.2633  104.9954 O.co2       1 LSW      -0.5665
      8 OAD        42.8696   13.9021  109.0828 O.2         1 LSW      -0.3908
      9 OAF        42.5676   10.7163  105.0898 O.co2       1 LSW      -0.5665
     10 CAG        40.0294   22.2151  107.1957 C.ar        1 LSW      -0.0687
     11 CAH        39.1934   21.1852  106.7344 C.ar        1 LSW      -0.0686
     12 CAI        40.4510   22.2307  108.5358 C.ar        1 LSW      -0.0686
     13 CAJ        44.5650    6.8609  108.6647 C.ar        1 LSW      -0.0768
     14 CAK        44.7223    8.1785  109.1504 C.ar        1 LSW      -0.0792
     15 CAL        38.7928   20.1572  107.6121 C.ar        1 LSW      -0.0603
     16 CAM        40.0452   21.2065  109.4159 C.ar        1 LSW      -0.0603
     17 CAN        43.4345    6.5152  107.8965 C.ar        1 LSW      -0.0443
     18 CAO        43.7448    9.1624  108.8832 C.ar        1 LSW      -0.0747
     19 CAP        40.7065    8.6228  106.9891 C.2         1 LSW       0.0166
     20 CAQ        42.2404   18.9032  105.5852 C.3         1 LSW      -0.0354
     21 CAR        43.4890   18.0548  105.9427 C.3         1 LSW      -0.0123
     22 CAS        43.2451   16.9504  107.0056 C.3         1 LSW      -0.0410
     23 CAT        38.8300   19.0339  109.8784 C.3         1 LSW      -0.0125
     24 CAU        41.8360   16.2944  106.9442 C.3         1 LSW       0.0081
     25 CAW        41.1642   10.9504  107.9598 C.3         1 LSW      -0.0013
     26 NAX        41.5523   13.2881  107.3829 N.am        1 LSW      -0.2657
     27 CBB        41.9086   11.7381  105.6786 C.2         1 LSW       0.0613
     28 CBC        41.9938   14.1769  108.2618 C.2         1 LSW       0.2263
     29 CBD        39.2194   20.1489  108.9636 C.ar        1 LSW      -0.0427
     30 CBE        41.4940    9.5283  107.7010 C.2         1 LSW      -0.0424
     31 CBF        42.4677    7.5051  107.6403 C.ar        1 LSW       0.0603
     32 CBG        42.6134    8.8101  108.1227 C.ar        1 LSW      -0.0214
     33 CBI        41.4040   15.5142  108.2315 C.3         1 LSW       0.0683
     34 CBJ        42.0192   11.9555  107.1354 C.3         1 LSW       0.0987
     35 OXT        42.0715   19.1949  111.2931 O.co2       1 LSW      -0.5643
     36 NXZ        41.3158    7.4256  106.9588 N.pl3       1 LSW      -0.2891
     37 H1         41.2816   15.6530  110.2772 H           1 LSW       0.2052
     38 H2         42.6418   16.3492  109.6423 H           1 LSW       0.2052
     39 H3         41.5063   18.2976  109.0179 H           1 LSW       0.1027
     40 H4         39.0154   16.8917  110.1077 H           1 LSW       0.0361
     41 H5         39.2505   17.4657  108.4661 H           1 LSW       0.0361
     42 H6         41.5885   20.0462  104.0301 H           1 LSW       0.1994
     43 H7         43.0397   19.2968  103.7239 H           1 LSW       0.1994
     44 H8         42.9712   20.6354  104.7499 H           1 LSW       0.1994
     45 H9         40.3295   22.9536  106.5544 H           1 LSW       0.0559
     46 H10        38.8812   21.1738  105.7596 H           1 LSW       0.0599
     47 H11        41.0544   22.9837  108.8748 H           1 LSW       0.0599
     48 H12        45.2791    6.1550  108.8661 H           1 LSW       0.0530
     49 H13        45.5509    8.4208  109.7015 H           1 LSW       0.0510
     50 H14        38.1839   19.4153  107.2573 H           1 LSW       0.0557
     51 H15        40.3672   21.2368  110.3868 H           1 LSW       0.0557
     52 H16        43.3142    5.5642  107.5402 H           1 LSW       0.0541
     53 H17        43.8581   10.1090  109.2478 H           1 LSW       0.0540
     54 H18        39.8114    8.8304  106.5472 H           1 LSW       0.0795
     55 H19        41.4099   18.2372  105.3187 H           1 LSW       0.0813
     56 H20        41.9384   19.5231  106.4360 H           1 LSW       0.0813
     57 H21        44.2695   18.7287  106.3097 H           1 LSW       0.0317
     58 H22        43.8614   17.6044  105.0170 H           1 LSW       0.0317
     59 H23        43.4061   17.3987  107.9862 H           1 LSW       0.0270
     60 H24        44.0055   16.1834  106.8712 H           1 LSW       0.0270
     61 H25        39.0747   19.2829  110.9152 H           1 LSW       0.0429
     62 H26        37.7414   18.9162  109.8411 H           1 LSW       0.0429
     63 H27        41.8140   15.6146  106.0893 H           1 LSW       0.0346
     64 H28        41.0940   17.0747  106.7509 H           1 LSW       0.0346
     65 H29        41.3088   11.1459  109.0268 H           1 LSW       0.0390
     66 H30        40.1063   11.1229  107.7431 H           1 LSW       0.0390
     67 H31        40.8206   13.5936  106.8159 H           1 LSW       0.1878
     68 H32        40.3193   15.3702  108.1738 H           1 LSW       0.1099
     69 H33        43.0695   11.8560  107.4248 H           1 LSW       0.0741
     70 H34        40.9696    6.6285  106.5246 H           1 LSW       0.2216
@<TRIPOS>BOND
     1     1     3  ar
     2     4     1   1
     3     1    35  ar
     4     2     4   1
     5    33     2   1
     6     4     5   1
     7     5    23   1
     8    20     6   1
     9    27     7  ar
    10    28     8   2
    11    27     9  ar
    12    11    10  ar
    13    12    10  ar
    14    15    11  ar
    15    16    12  ar
    16    14    13  ar
    17    13    17  ar
    18    18    14  ar
    19    29    15  ar
    20    29    16  ar
    21    17    31  ar
    22    32    18  ar
    23    30    19   2
    24    19    36   1
    25    21    20   1
    26    22    21   1
    27    24    22   1
    28    23    29   1
    29    33    24   1
    30    30    25   1
    31    25    34   1
    32    26    28  am
    33    34    26   1
    34    34    27   1
    35    28    33   1
    36    30    32   1
    37    31    32  ar
    38    31    36   1
    39     2    37   1
    40     2    38   1
    41     4    39   1
    42     5    40   1
    43     5    41   1
    44     6    42   1
    45     6    43   1
    46     6    44   1
    47    10    45   1
    48    11    46   1
    49    12    47   1
    50    13    48   1
    51    14    49   1
    52    15    50   1
    53    16    51   1
    54    17    52   1
    55    18    53   1
    56    19    54   1
    57    20    55   1
    58    20    56   1
    59    21    57   1
    60    21    58   1
    61    22    59   1
    62    22    60   1
    63    23    61   1
    64    23    62   1
    65    24    63   1
    66    24    64   1
    67    25    65   1
    68    25    66   1
    69    26    67   1
    70    33    68   1
    71    34    69   1
    72    36    70   1
@<TRIPOS>SUBSTRUCTURE
     1  LSW      1

