@<TRIPOS>MOLECULE
3l3n_ligand_054
    70    72
SMALL
GAST_HUCK
****
This file was generated by PARSER (from files_GN.cpp)

@<TRIPOS>ATOM
      1 C          43.5871   15.3403  108.7403 C.2         1 LSW       0.0847
      2 N          41.5392   14.0420  109.2097 N.4         1 LSW       0.2599
      3 O          44.7391   14.8038  109.2149 O.co2       1 LSW      -0.5643
      4 CA         42.5396   14.4519  108.1789 C.3         1 LSW       0.0340
      5 CB         41.8124   15.0127  106.9033 C.3         1 LSW       0.0122
      6 NAA        38.9141   16.4719  114.5716 N.4         1 LSW       0.2185
      7 OAC        45.4853    9.3166  108.8993 O.co2       1 LSW      -0.5665
      8 OAD        44.0887   12.8514  111.1158 O.2         1 LSW      -0.3908
      9 OAF        45.3064   11.6149  109.0515 O.co2       1 LSW      -0.5665
     10 CAG        39.8858   19.7008  108.5152 C.ar        1 LSW      -0.0687
     11 CAH        39.4603   18.3673  108.6878 C.ar        1 LSW      -0.0686
     12 CAI        40.9749   19.9798  107.6691 C.ar        1 LSW      -0.0686
     13 CAJ        37.9662    9.3236  107.6300 C.ar        1 LSW      -0.0768
     14 CAK        39.2087    9.3456  106.9541 C.ar        1 LSW      -0.0792
     15 CAL        40.1371   17.3173  108.0284 C.ar        1 LSW      -0.0603
     16 CAM        41.6493   18.9259  107.0203 C.ar        1 LSW      -0.0603
     17 CAN        37.9189    9.1752  109.0318 C.ar        1 LSW      -0.0443
     18 CAO        40.4143    9.2134  107.6706 C.ar        1 LSW      -0.0747
     19 CAP        40.6844    8.7938  111.2578 C.2         1 LSW       0.0166
     20 CAQ        39.5503   15.1466  114.5275 C.3         1 LSW      -0.0354
     21 CAR        40.4607   14.9919  113.2819 C.3         1 LSW      -0.0123
     22 CAS        40.7386   13.5028  112.9175 C.3         1 LSW      -0.0410
     23 CAT        42.0168   16.5061  106.4855 C.3         1 LSW      -0.0125
     24 CAU        40.6913   13.2174  111.3885 C.3         1 LSW       0.0081
     25 CAW        42.8162    8.8992  109.8003 C.3         1 LSW      -0.0013
     26 NAX        42.7443   11.3941  110.1045 N.am        1 LSW      -0.2657
     27 CBB        44.8176   10.3947  109.3837 C.2         1 LSW       0.0613
     28 CBC        42.9945   12.5966  110.6164 C.2         1 LSW       0.2263
     29 CBD        41.2697   17.5738  107.2135 C.ar        1 LSW      -0.0427
     30 CBE        41.3495    8.9045  110.0307 C.2         1 LSW      -0.0424
     31 CBF        39.1271    9.0290  109.7355 C.ar        1 LSW       0.0603
     32 CBG        40.3537    9.0444  109.0665 C.ar        1 LSW      -0.0214
     33 CBI        41.9693   13.6408  110.5821 C.3         1 LSW       0.0683
     34 CBJ        43.5801   10.2220  110.1806 C.3         1 LSW       0.0987
     35 OXT        43.3049   16.6267  109.0549 O.co2       1 LSW      -0.5643
     36 NXZ        39.3631    8.8876  111.0479 N.pl3       1 LSW      -0.2891
     37 H1         41.0031   13.2589  108.8198 H           1 LSW       0.2052
     38 H2         40.8922   14.8247  109.3326 H           1 LSW       0.2052
     39 H3         43.0222   13.5197  107.8623 H           1 LSW       0.1027
     40 H4         40.7341   14.8302  106.9823 H           1 LSW       0.0361
     41 H5         42.1596   14.4237  106.0471 H           1 LSW       0.0361
     42 H6         38.3201   16.5273  115.4061 H           1 LSW       0.1994
     43 H7         38.3356   16.5983  113.7307 H           1 LSW       0.1994
     44 H8         39.6349   17.2042  114.6137 H           1 LSW       0.1994
     45 H9         39.3885   20.4582  108.9927 H           1 LSW       0.0559
     46 H10        38.6536   18.1615  109.2876 H           1 LSW       0.0599
     47 H11        41.2690   20.9507  107.5278 H           1 LSW       0.0599
     48 H12        37.0987    9.4249  107.1045 H           1 LSW       0.0530
     49 H13        39.2299    9.4603  105.9419 H           1 LSW       0.0510
     50 H14        39.7937   16.3604  108.1472 H           1 LSW       0.0557
     51 H15        42.4348   19.1666  106.4082 H           1 LSW       0.0557
     52 H16        37.0261    9.1613  109.5291 H           1 LSW       0.0541
     53 H17        41.3104    9.2317  107.1827 H           1 LSW       0.0540
     54 H18        41.1361    8.6959  112.1709 H           1 LSW       0.0795
     55 H19        38.7491   14.4045  114.4875 H           1 LSW       0.0813
     56 H20        40.1310   14.9953  115.4440 H           1 LSW       0.0813
     57 H21        41.4072   15.5108  113.4664 H           1 LSW       0.0317
     58 H22        39.9620   15.4953  112.4475 H           1 LSW       0.0317
     59 H23        39.9800   12.8714  113.3893 H           1 LSW       0.0270
     60 H24        41.7095   13.2007  113.3259 H           1 LSW       0.0270
     61 H25        41.7484   16.6031  105.4298 H           1 LSW       0.0429
     62 H26        43.0882   16.7174  106.5548 H           1 LSW       0.0429
     63 H27        39.8115   13.7331  110.9911 H           1 LSW       0.0346
     64 H28        40.4903   12.1473  111.2516 H           1 LSW       0.0346
     65 H29        42.9805    8.6385  108.7471 H           1 LSW       0.0390
     66 H30        43.2495    8.0759  110.3774 H           1 LSW       0.0390
     67 H31        41.8702   11.2881  109.6979 H           1 LSW       0.1878
     68 H32        42.3655   14.5483  111.0480 H           1 LSW       0.1099
     69 H33        43.8989   10.1103  111.2262 H           1 LSW       0.0741
     70 H34        38.6842    8.8444  111.7434 H           1 LSW       0.2216
@<TRIPOS>BOND
     1     1     3  ar
     2     4     1   1
     3     1    35  ar
     4     2     4   1
     5    33     2   1
     6     4     5   1
     7     5    23   1
     8    20     6   1
     9    27     7  ar
    10    28     8   2
    11    27     9  ar
    12    11    10  ar
    13    12    10  ar
    14    15    11  ar
    15    16    12  ar
    16    14    13  ar
    17    13    17  ar
    18    18    14  ar
    19    29    15  ar
    20    29    16  ar
    21    17    31  ar
    22    32    18  ar
    23    30    19   2
    24    19    36   1
    25    21    20   1
    26    22    21   1
    27    24    22   1
    28    23    29   1
    29    33    24   1
    30    30    25   1
    31    25    34   1
    32    26    28  am
    33    34    26   1
    34    34    27   1
    35    28    33   1
    36    30    32   1
    37    31    32  ar
    38    31    36   1
    39     2    37   1
    40     2    38   1
    41     4    39   1
    42     5    40   1
    43     5    41   1
    44     6    42   1
    45     6    43   1
    46     6    44   1
    47    10    45   1
    48    11    46   1
    49    12    47   1
    50    13    48   1
    51    14    49   1
    52    15    50   1
    53    16    51   1
    54    17    52   1
    55    18    53   1
    56    19    54   1
    57    20    55   1
    58    20    56   1
    59    21    57   1
    60    21    58   1
    61    22    59   1
    62    22    60   1
    63    23    61   1
    64    23    62   1
    65    24    63   1
    66    24    64   1
    67    25    65   1
    68    25    66   1
    69    26    67   1
    70    33    68   1
    71    34    69   1
    72    36    70   1
@<TRIPOS>SUBSTRUCTURE
     1  LSW      1

