@<TRIPOS>MOLECULE
3l3n_ligand_002
    70    72
SMALL
GAST_HUCK
****
This file was generated by PARSER (from files_GN.cpp)

@<TRIPOS>ATOM
      1 C          46.2429   13.4119  110.6632 C.2         1 LSW       0.0847
      2 N          44.3106   14.6160  111.7961 N.4         1 LSW       0.2599
      3 O          45.4542   12.3907  110.2366 O.co2       1 LSW      -0.5643
      4 CA         45.6967   14.6619  111.2331 C.3         1 LSW       0.0340
      5 CB         46.6953   15.1868  112.3358 C.3         1 LSW       0.0122
      6 NAA        39.4877   17.2145  113.6958 N.4         1 LSW       0.2185
      7 OAC        43.4554   10.9790  107.4788 O.co2       1 LSW      -0.5665
      8 OAD        43.8533   14.6199  109.0213 O.2         1 LSW      -0.3908
      9 OAF        44.0576   12.9753  106.4742 O.co2       1 LSW      -0.5665
     10 CAG        48.6038   17.1370  116.7663 C.ar        1 LSW      -0.0687
     11 CAH        48.2543   15.8116  116.4554 C.ar        1 LSW      -0.0686
     12 CAI        48.1573   18.1891  115.9471 C.ar        1 LSW      -0.0686
     13 CAJ        39.8595   18.9649  108.6449 C.ar        1 LSW      -0.0768
     14 CAK        40.9011   18.6739  107.7385 C.ar        1 LSW      -0.0792
     15 CAL        47.4652   15.5380  115.3263 C.ar        1 LSW      -0.0603
     16 CAM        47.3732   17.9121  114.8089 C.ar        1 LSW      -0.0603
     17 CAN        39.0919   17.9275  109.2086 C.ar        1 LSW      -0.0443
     18 CAO        41.1797   17.3351  107.3801 C.ar        1 LSW      -0.0747
     19 CAP        39.3550   14.4298  108.5560 C.2         1 LSW       0.0166
     20 CAQ        39.8996   16.0921  114.5436 C.3         1 LSW      -0.0354
     21 CAR        40.1601   14.7815  113.7517 C.3         1 LSW      -0.0123
     22 CAS        41.6163   14.5489  113.2229 C.3         1 LSW      -0.0410
     23 CAT        46.1488   16.2779  113.2967 C.3         1 LSW      -0.0125
     24 CAU        41.8074   14.6439  111.6825 C.3         1 LSW       0.0081
     25 CAW        41.3464   14.1016  106.9677 C.3         1 LSW      -0.0013
     26 NAX        42.1952   13.1128  109.1364 N.am        1 LSW      -0.2657
     27 CBB        43.1243   12.2474  107.1190 C.2         1 LSW       0.0613
     28 CBC        43.1079   13.9005  109.6916 C.2         1 LSW       0.2263
     29 CBD        47.0287   16.5799  114.4674 C.ar        1 LSW      -0.0427
     30 CBE        40.4061   14.9152  107.7708 C.2         1 LSW      -0.0424
     31 CBF        39.3647   16.6016  108.8243 C.ar        1 LSW       0.0603
     32 CBG        40.3949   16.3022  107.9332 C.ar        1 LSW      -0.0214
     33 CBI        43.1240   13.9696  111.1504 C.3         1 LSW       0.0683
     34 CBJ        41.9336   12.8790  107.7397 C.3         1 LSW       0.0987
     35 OXT        47.5797   13.2991  110.4622 O.co2       1 LSW      -0.5643
     36 NXZ        38.7633   15.4585  109.1906 N.pl3       1 LSW      -0.2891
     37 H1         44.0440   15.5929  111.9418 H           1 LSW       0.2052
     38 H2         44.3926   14.1671  112.7146 H           1 LSW       0.2052
     39 H3         45.6806   15.4015  110.4216 H           1 LSW       0.1027
     40 H4         47.5863   15.5861  111.8396 H           1 LSW       0.0361
     41 H5         47.0162   14.3314  112.9369 H           1 LSW       0.0361
     42 H6         39.3460   18.0304  114.2926 H           1 LSW       0.1994
     43 H7         38.6026   16.9914  113.2363 H           1 LSW       0.1994
     44 H8         40.2109   17.4208  113.0031 H           1 LSW       0.1994
     45 H9         49.1703   17.3402  117.5918 H           1 LSW       0.0559
     46 H10        48.5750   15.0440  117.0537 H           1 LSW       0.0599
     47 H11        48.3952   19.1600  116.1808 H           1 LSW       0.0599
     48 H12        39.6663   19.9386  108.8947 H           1 LSW       0.0530
     49 H13        41.4514   19.4284  107.3277 H           1 LSW       0.0510
     50 H14        47.2104   14.5671  115.1339 H           1 LSW       0.0557
     51 H15        47.0430   18.6967  114.2376 H           1 LSW       0.0557
     52 H16        38.3336   18.1361  109.8630 H           1 LSW       0.0541
     53 H17        41.9350   17.1283  106.7178 H           1 LSW       0.0540
     54 H18        39.0843   13.4582  108.6480 H           1 LSW       0.0795
     55 H19        39.0844   15.9197  115.2545 H           1 LSW       0.0813
     56 H20        40.7937   16.3755  115.1123 H           1 LSW       0.0813
     57 H21        39.4435   14.7066  112.9285 H           1 LSW       0.0317
     58 H22        39.9298   13.9621  114.4383 H           1 LSW       0.0317
     59 H23        41.9123   13.5381  113.5214 H           1 LSW       0.0270
     60 H24        42.2985   15.2401  113.7204 H           1 LSW       0.0270
     61 H25        45.1887   15.9536  113.7135 H           1 LSW       0.0429
     62 H26        45.9709   17.1872  112.7141 H           1 LSW       0.0429
     63 H27        41.7938   15.6976  111.3908 H           1 LSW       0.0346
     64 H28        40.9409   14.1610  111.2140 H           1 LSW       0.0346
     65 H29        42.1646   14.7338  106.6167 H           1 LSW       0.0390
     66 H30        40.8196   13.7321  106.0835 H           1 LSW       0.0390
     67 H31        41.6424   12.5829  109.7496 H           1 LSW       0.1878
     68 H32        43.1250   12.9371  111.5168 H           1 LSW       0.1099
     69 H33        41.1627   12.1032  107.7204 H           1 LSW       0.0741
     70 H34        38.0385   15.4020  109.8303 H           1 LSW       0.2216
@<TRIPOS>BOND
     1     1     3  ar
     2     4     1   1
     3     1    35  ar
     4     2     4   1
     5    33     2   1
     6     4     5   1
     7     5    23   1
     8    20     6   1
     9    27     7  ar
    10    28     8   2
    11    27     9  ar
    12    11    10  ar
    13    12    10  ar
    14    15    11  ar
    15    16    12  ar
    16    14    13  ar
    17    13    17  ar
    18    18    14  ar
    19    29    15  ar
    20    29    16  ar
    21    17    31  ar
    22    32    18  ar
    23    30    19   2
    24    19    36   1
    25    21    20   1
    26    22    21   1
    27    24    22   1
    28    23    29   1
    29    33    24   1
    30    30    25   1
    31    25    34   1
    32    26    28  am
    33    34    26   1
    34    34    27   1
    35    28    33   1
    36    30    32   1
    37    31    32  ar
    38    31    36   1
    39     2    37   1
    40     2    38   1
    41     4    39   1
    42     5    40   1
    43     5    41   1
    44     6    42   1
    45     6    43   1
    46     6    44   1
    47    10    45   1
    48    11    46   1
    49    12    47   1
    50    13    48   1
    51    14    49   1
    52    15    50   1
    53    16    51   1
    54    17    52   1
    55    18    53   1
    56    19    54   1
    57    20    55   1
    58    20    56   1
    59    21    57   1
    60    21    58   1
    61    22    59   1
    62    22    60   1
    63    23    61   1
    64    23    62   1
    65    24    63   1
    66    24    64   1
    67    25    65   1
    68    25    66   1
    69    26    67   1
    70    33    68   1
    71    34    69   1
    72    36    70   1
@<TRIPOS>SUBSTRUCTURE
     1  LSW      1

