@<TRIPOS>MOLECULE
3l3n_ligand_068
    70    72
SMALL
GAST_HUCK
****
This file was generated by PARSER (from files_GN.cpp)

@<TRIPOS>ATOM
      1 C          47.0525   13.6961  111.2209 C.2         1 LSW       0.0847
      2 N          44.9690   14.4362  112.4102 N.4         1 LSW       0.2599
      3 O          46.4857   13.0843  110.1594 O.co2       1 LSW      -0.5643
      4 CA         46.3333   14.7975  111.9271 C.3         1 LSW       0.0340
      5 CB         47.1513   15.3407  113.1444 C.3         1 LSW       0.0122
      6 NAA        39.3593   14.8912  110.0351 N.4         1 LSW       0.2185
      7 OAC        41.4802   14.9267  107.9404 O.co2       1 LSW      -0.5665
      8 OAD        43.5706   13.4937  109.3301 O.2         1 LSW      -0.3908
      9 OAF        40.9228   17.0752  108.6200 O.co2       1 LSW      -0.5665
     10 CAG        49.1397   18.5984  116.5682 C.ar        1 LSW      -0.0687
     11 CAH        49.0862   17.1968  116.6593 C.ar        1 LSW      -0.0686
     12 CAI        48.2743   19.2755  115.6944 C.ar        1 LSW      -0.0686
     13 CAJ        42.4921   19.8305  104.6097 C.ar        1 LSW      -0.0768
     14 CAK        41.7763   18.7261  105.1133 C.ar        1 LSW      -0.0792
     15 CAL        48.1720   16.4721  115.8740 C.ar        1 LSW      -0.0603
     16 CAM        47.3747   18.5475  114.8912 C.ar        1 LSW      -0.0603
     17 CAN        43.8579   19.9991  104.9330 C.ar        1 LSW      -0.0443
     18 CAO        42.4059   17.7702  105.9246 C.ar        1 LSW      -0.0747
     19 CAP        45.8551   17.9338  107.0334 C.2         1 LSW       0.0166
     20 CAQ        40.3090   15.3793  111.0383 C.3         1 LSW      -0.0354
     21 CAR        40.4145   14.4651  112.2888 C.3         1 LSW      -0.0123
     22 CAS        41.8363   14.4047  112.9337 C.3         1 LSW      -0.0410
     23 CAT        46.4091   16.3596  114.0623 C.3         1 LSW      -0.0125
     24 CAU        42.7680   13.2480  112.4375 C.3         1 LSW       0.0081
     25 CAW        44.3419   16.0629  107.9174 C.3         1 LSW      -0.0013
     26 NAX        43.4756   15.5403  110.1911 N.am        1 LSW      -0.2657
     27 CBB        41.8579   16.1018  108.5006 C.2         1 LSW       0.0613
     28 CBC        43.6420   14.2270  110.3111 C.2         1 LSW       0.2263
     29 CBD        47.3237   17.1344  114.9505 C.ar        1 LSW      -0.0427
     30 CBE        44.6339   17.2532  107.0873 C.2         1 LSW      -0.0424
     31 CBF        44.4661   19.0638  105.7764 C.ar        1 LSW       0.0603
     32 CBG        43.7636   17.9608  106.2704 C.ar        1 LSW      -0.0214
     33 CBI        44.0161   13.6360  111.5865 C.3         1 LSW       0.0683
     34 CBJ        43.2394   16.3031  109.0002 C.3         1 LSW       0.0987
     35 OXT        48.3429   13.3679  111.4697 O.co2       1 LSW      -0.5643
     36 NXZ        45.7250   19.0170  106.2502 N.pl3       1 LSW      -0.2891
     37 H1         44.5013   15.3136  112.6439 H           1 LSW       0.2052
     38 H2         45.1071   13.9300  113.2820 H           1 LSW       0.2052
     39 H3         46.2293   15.6202  111.2149 H           1 LSW       0.1027
     40 H4         48.0537   15.8196  112.7550 H           1 LSW       0.0361
     41 H5         47.4677   14.4912  113.7585 H           1 LSW       0.0361
     42 H6         39.3951   15.4982  109.2123 H           1 LSW       0.1994
     43 H7         38.4163   14.9206  110.4220 H           1 LSW       0.1994
     44 H8         39.6016   13.9352  109.7647 H           1 LSW       0.1994
     45 H9         49.8083   19.1249  117.1355 H           1 LSW       0.0559
     46 H10        49.7212   16.7037  117.2886 H           1 LSW       0.0599
     47 H11        48.3082   20.2949  115.6290 H           1 LSW       0.0599
     48 H12        42.0246   20.5062  104.0051 H           1 LSW       0.0530
     49 H13        40.7836   18.6187  104.9001 H           1 LSW       0.0510
     50 H14        48.1470   15.4541  115.9600 H           1 LSW       0.0557
     51 H15        46.7663   19.0607  114.2513 H           1 LSW       0.0557
     52 H16        44.3761   20.8047  104.5867 H           1 LSW       0.0541
     53 H17        41.8844   16.9577  106.2453 H           1 LSW       0.0540
     54 H18        46.7025   17.6829  107.5436 H           1 LSW       0.0795
     55 H19        40.0174   16.3825  111.3371 H           1 LSW       0.0813
     56 H20        41.2615   15.4679  110.5539 H           1 LSW       0.0813
     57 H21        40.0757   13.4549  112.0410 H           1 LSW       0.0317
     58 H22        39.6985   14.8296  113.0361 H           1 LSW       0.0317
     59 H23        41.7033   14.2945  114.0114 H           1 LSW       0.0270
     60 H24        42.3234   15.3686  112.8063 H           1 LSW       0.0270
     61 H25        45.6927   15.8278  114.6936 H           1 LSW       0.0429
     62 H26        45.8399   17.0347  113.4210 H           1 LSW       0.0429
     63 H27        42.1926   12.5117  111.8725 H           1 LSW       0.0346
     64 H28        43.1349   12.7190  113.3243 H           1 LSW       0.0346
     65 H29        45.2635   15.7716  108.4228 H           1 LSW       0.0390
     66 H30        44.0683   15.2385  107.2575 H           1 LSW       0.0390
     67 H31        43.5530   16.0593  111.0060 H           1 LSW       0.1878
     68 H32        44.5268   12.6907  111.3804 H           1 LSW       0.1099
     69 H33        43.3089   17.3479  109.3260 H           1 LSW       0.0741
     70 H34        46.4185   19.6709  106.0713 H           1 LSW       0.2216
@<TRIPOS>BOND
     1     1     3  ar
     2     4     1   1
     3     1    35  ar
     4     2     4   1
     5    33     2   1
     6     4     5   1
     7     5    23   1
     8    20     6   1
     9    27     7  ar
    10    28     8   2
    11    27     9  ar
    12    11    10  ar
    13    12    10  ar
    14    15    11  ar
    15    16    12  ar
    16    14    13  ar
    17    13    17  ar
    18    18    14  ar
    19    29    15  ar
    20    29    16  ar
    21    17    31  ar
    22    32    18  ar
    23    30    19   2
    24    19    36   1
    25    21    20   1
    26    22    21   1
    27    24    22   1
    28    23    29   1
    29    33    24   1
    30    30    25   1
    31    25    34   1
    32    26    28  am
    33    34    26   1
    34    34    27   1
    35    28    33   1
    36    30    32   1
    37    31    32  ar
    38    31    36   1
    39     2    37   1
    40     2    38   1
    41     4    39   1
    42     5    40   1
    43     5    41   1
    44     6    42   1
    45     6    43   1
    46     6    44   1
    47    10    45   1
    48    11    46   1
    49    12    47   1
    50    13    48   1
    51    14    49   1
    52    15    50   1
    53    16    51   1
    54    17    52   1
    55    18    53   1
    56    19    54   1
    57    20    55   1
    58    20    56   1
    59    21    57   1
    60    21    58   1
    61    22    59   1
    62    22    60   1
    63    23    61   1
    64    23    62   1
    65    24    63   1
    66    24    64   1
    67    25    65   1
    68    25    66   1
    69    26    67   1
    70    33    68   1
    71    34    69   1
    72    36    70   1
@<TRIPOS>SUBSTRUCTURE
     1  LSW      1

