@<TRIPOS>MOLECULE
3l3n_ligand_025
    70    72
SMALL
GAST_HUCK
****
This file was generated by PARSER (from files_GN.cpp)

@<TRIPOS>ATOM
      1 C          46.5553   13.7672  111.4219 C.2         1 LSW       0.0847
      2 N          44.2962   14.3847  112.2997 N.4         1 LSW       0.2599
      3 O          46.4342   13.0908  110.2603 O.co2       1 LSW      -0.5643
      4 CA         45.5978   14.8628  111.7333 C.3         1 LSW       0.0340
      5 CB         46.1922   15.9784  112.6497 C.3         1 LSW       0.0122
      6 NAA        38.9127   16.0333  114.3218 N.4         1 LSW       0.2185
      7 OAC        45.4518   12.0326  108.0381 O.co2       1 LSW      -0.5665
      8 OAD        43.5747   14.7640  109.6574 O.2         1 LSW      -0.3908
      9 OAF        44.8642   13.8733  106.7639 O.co2       1 LSW      -0.5665
     10 CAG        48.2162   18.5221  116.6547 C.ar        1 LSW      -0.0687
     11 CAH        48.8799   17.7295  115.7008 C.ar        1 LSW      -0.0686
     12 CAI        46.8159   18.4573  116.7667 C.ar        1 LSW      -0.0686
     13 CAJ        38.6816    9.9126  105.1499 C.ar        1 LSW      -0.0768
     14 CAK        40.0828    9.9472  104.9646 C.ar        1 LSW      -0.0792
     15 CAL        48.1407   16.8725  114.8681 C.ar        1 LSW      -0.0603
     16 CAM        46.0799   17.5758  115.9561 C.ar        1 LSW      -0.0603
     17 CAN        38.0430   10.8938  105.9408 C.ar        1 LSW      -0.0443
     18 CAO        40.8619   10.9536  105.5668 C.ar        1 LSW      -0.0747
     19 CAP        39.5643   13.6361  107.6315 C.2         1 LSW       0.0166
     20 CAQ        40.0954   15.1768  114.5032 C.3         1 LSW      -0.0354
     21 CAR        41.2284   15.5713  113.5215 C.3         1 LSW      -0.0123
     22 CAS        41.2071   14.7864  112.1733 C.3         1 LSW      -0.0410
     23 CAT        45.9827   15.7753  114.1795 C.3         1 LSW      -0.0125
     24 CAU        41.9806   13.4258  112.1903 C.3         1 LSW       0.0081
     25 CAW        42.0842   13.5392  107.1404 C.3         1 LSW      -0.0013
     26 NAX        43.0272   12.6342  109.3139 N.am        1 LSW      -0.2657
     27 CBB        44.4846   12.7648  107.4401 C.2         1 LSW       0.0613
     28 CBC        43.3309   13.6564  110.1139 C.2         1 LSW       0.2263
     29 CBD        46.7348   16.7611  115.0032 C.ar        1 LSW      -0.0427
     30 CBE        40.6955   13.0317  107.0727 C.2         1 LSW      -0.0424
     31 CBF        38.8336   11.8909  106.5402 C.ar        1 LSW       0.0603
     32 CBG        40.2210   11.9222  106.3666 C.ar        1 LSW      -0.0214
     33 CBI        43.4072   13.4393  111.5571 C.3         1 LSW       0.0683
     34 CBJ        43.0802   12.5879  107.8774 C.3         1 LSW       0.0987
     35 OXT        47.7355   13.6396  112.0675 O.co2       1 LSW      -0.5643
     36 NXZ        38.4671   12.9327  107.2983 N.pl3       1 LSW      -0.2891
     37 H1         43.7396   15.2207  112.4926 H           1 LSW       0.2052
     38 H2         44.5009   13.9457  113.2042 H           1 LSW       0.2052
     39 H3         45.3900   15.3516  110.7794 H           1 LSW       0.1027
     40 H4         45.7389   16.9322  112.3687 H           1 LSW       0.0361
     41 H5         47.2596   16.0632  112.4368 H           1 LSW       0.0361
     42 H6         38.1778   15.7230  114.9577 H           1 LSW       0.1994
     43 H7         38.5688   15.9831  113.3580 H           1 LSW       0.1994
     44 H8         39.1539   17.0025  114.5399 H           1 LSW       0.1994
     45 H9         48.7535   19.1373  117.2704 H           1 LSW       0.0559
     46 H10        49.8969   17.7732  115.6150 H           1 LSW       0.0599
     47 H11        46.3349   19.0496  117.4451 H           1 LSW       0.0599
     48 H12        38.1237    9.1750  104.7047 H           1 LSW       0.0530
     49 H13        40.5395    9.2307  104.3890 H           1 LSW       0.0510
     50 H14        48.6374   16.3111  114.1726 H           1 LSW       0.0557
     51 H15        45.0643   17.5245  116.0640 H           1 LSW       0.0557
     52 H16        37.0307   10.8768  106.0792 H           1 LSW       0.0541
     53 H17        41.8734   10.9787  105.4170 H           1 LSW       0.0540
     54 H18        39.5610   14.4995  108.1802 H           1 LSW       0.0795
     55 H19        39.8147   14.1307  114.3651 H           1 LSW       0.0813
     56 H20        40.4443   15.3040  115.5287 H           1 LSW       0.0813
     57 H21        42.1874   15.4291  114.0255 H           1 LSW       0.0317
     58 H22        41.1343   16.6381  113.3130 H           1 LSW       0.0317
     59 H23        41.6236   15.4298  111.3951 H           1 LSW       0.0270
     60 H24        40.1686   14.5960  111.8819 H           1 LSW       0.0270
     61 H25        46.3017   14.7752  114.4760 H           1 LSW       0.0429
     62 H26        44.9104   15.8355  114.3930 H           1 LSW       0.0429
     63 H27        41.3735   12.6784  111.6630 H           1 LSW       0.0346
     64 H28        42.0593   13.0689  113.2181 H           1 LSW       0.0346
     65 H29        42.0888   14.5207  107.6189 H           1 LSW       0.0390
     66 H30        42.4190   13.6884  106.1136 H           1 LSW       0.0390
     67 H31        42.8274   11.7909  109.7464 H           1 LSW       0.1878
     68 H32        43.8251   12.4434  111.7296 H           1 LSW       0.1099
     69 H33        42.8125   11.5677  107.5843 H           1 LSW       0.0741
     70 H34        37.5529   13.1590  107.5405 H           1 LSW       0.2216
@<TRIPOS>BOND
     1     1     3  ar
     2     4     1   1
     3     1    35  ar
     4     2     4   1
     5    33     2   1
     6     4     5   1
     7     5    23   1
     8    20     6   1
     9    27     7  ar
    10    28     8   2
    11    27     9  ar
    12    11    10  ar
    13    12    10  ar
    14    15    11  ar
    15    16    12  ar
    16    14    13  ar
    17    13    17  ar
    18    18    14  ar
    19    29    15  ar
    20    29    16  ar
    21    17    31  ar
    22    32    18  ar
    23    30    19   2
    24    19    36   1
    25    21    20   1
    26    22    21   1
    27    24    22   1
    28    23    29   1
    29    33    24   1
    30    30    25   1
    31    25    34   1
    32    26    28  am
    33    34    26   1
    34    34    27   1
    35    28    33   1
    36    30    32   1
    37    31    32  ar
    38    31    36   1
    39     2    37   1
    40     2    38   1
    41     4    39   1
    42     5    40   1
    43     5    41   1
    44     6    42   1
    45     6    43   1
    46     6    44   1
    47    10    45   1
    48    11    46   1
    49    12    47   1
    50    13    48   1
    51    14    49   1
    52    15    50   1
    53    16    51   1
    54    17    52   1
    55    18    53   1
    56    19    54   1
    57    20    55   1
    58    20    56   1
    59    21    57   1
    60    21    58   1
    61    22    59   1
    62    22    60   1
    63    23    61   1
    64    23    62   1
    65    24    63   1
    66    24    64   1
    67    25    65   1
    68    25    66   1
    69    26    67   1
    70    33    68   1
    71    34    69   1
    72    36    70   1
@<TRIPOS>SUBSTRUCTURE
     1  LSW      1

