@<TRIPOS>MOLECULE
3l3n_ligand_050
    70    72
SMALL
GAST_HUCK
****
This file was generated by PARSER (from files_GN.cpp)

@<TRIPOS>ATOM
      1 C          39.3929   14.8947  112.9769 C.2         1 LSW       0.0847
      2 N          41.6524   15.2863  112.0272 N.4         1 LSW       0.2599
      3 O          38.4514   15.0316  113.9398 O.co2       1 LSW      -0.5643
      4 CA         40.6297   15.7041  113.0235 C.3         1 LSW       0.0340
      5 CB         40.3172   17.2281  112.8413 C.3         1 LSW       0.0122
      6 NAA        42.7534    8.7996  113.9477 N.4         1 LSW       0.2185
      7 OAC        46.4419   12.5560  110.2756 O.co2       1 LSW      -0.5665
      8 OAD        43.6182   14.5299  110.2406 O.2         1 LSW      -0.3908
      9 OAF        48.2632   13.2986  111.4924 O.co2       1 LSW      -0.5665
     10 CAG        41.7692   16.1430  108.0429 C.ar        1 LSW      -0.0687
     11 CAH        40.4430   15.7532  108.2982 C.ar        1 LSW      -0.0686
     12 CAI        42.3955   17.0827  108.8794 C.ar        1 LSW      -0.0686
     13 CAJ        47.1295   18.1636  116.9847 C.ar        1 LSW      -0.0768
     14 CAK        46.8390   18.7754  115.7506 C.ar        1 LSW      -0.0792
     15 CAL        39.7471   16.2940  109.3938 C.ar        1 LSW      -0.0603
     16 CAM        41.7034   17.6213  109.9798 C.ar        1 LSW      -0.0603
     17 CAN        47.4207   16.7866  117.0458 C.ar        1 LSW      -0.0443
     18 CAO        46.8281   18.0211  114.5576 C.ar        1 LSW      -0.0747
     19 CAP        47.5617   14.4829  114.3318 C.2         1 LSW       0.0166
     20 CAQ        41.8645    9.8728  113.4784 C.3         1 LSW      -0.0354
     21 CAR        42.0542   10.1677  111.9606 C.3         1 LSW      -0.0123
     22 CAS        42.7562   11.5283  111.6717 C.3         1 LSW      -0.0410
     23 CAT        39.6882   17.7002  111.4951 C.3         1 LSW      -0.0125
     24 CAU        41.8273   12.7722  111.8353 C.3         1 LSW       0.0081
     25 CAW        46.9783   15.8009  112.1828 C.3         1 LSW      -0.0013
     26 NAX        44.9485   14.3828  112.0224 N.am        1 LSW      -0.2657
     27 CBB        46.9658   13.4620  111.1338 C.2         1 LSW       0.0613
     28 CBC        43.7480   14.3559  111.4496 C.2         1 LSW       0.2263
     29 CBD        40.3779   17.2140  110.2691 C.ar        1 LSW      -0.0427
     30 CBE        47.1699   15.6409  113.6512 C.2         1 LSW      -0.0424
     31 CBF        47.3989   16.0480  115.8551 C.ar        1 LSW       0.0603
     32 CBG        47.0946   16.6414  114.6260 C.ar        1 LSW      -0.0214
     33 CBI        42.5400   14.1047  112.2364 C.3         1 LSW       0.0683
     34 CBJ        46.2003   14.7032  111.3932 C.3         1 LSW       0.0987
     35 OXT        39.1380   14.0290  111.9656 O.co2       1 LSW      -0.5643
     36 NXZ        47.6747   14.7566  115.6436 N.pl3       1 LSW      -0.2891
     37 H1         42.2817   16.0813  111.9429 H           1 LSW       0.2052
     38 H2         41.1880   15.1703  111.1241 H           1 LSW       0.2052
     39 H3         41.0655   15.5847  114.0216 H           1 LSW       0.1027
     40 H4         41.2450   17.7876  112.9865 H           1 LSW       0.0361
     41 H5         39.6480   17.5434  113.6488 H           1 LSW       0.0361
     42 H6         42.6877    8.7417  114.9668 H           1 LSW       0.1994
     43 H7         43.7164    9.0168  113.6862 H           1 LSW       0.1994
     44 H8         42.4784    7.9065  113.5302 H           1 LSW       0.1994
     45 H9         42.2801   15.7334  107.2564 H           1 LSW       0.0559
     46 H10        39.9895   15.0616  107.6983 H           1 LSW       0.0599
     47 H11        43.3636   17.3583  108.6984 H           1 LSW       0.0599
     48 H12        47.1429   18.7164  117.8406 H           1 LSW       0.0530
     49 H13        46.6445   19.7786  115.7144 H           1 LSW       0.0510
     50 H14        38.7913   15.9794  109.5730 H           1 LSW       0.0557
     51 H15        42.1883   18.2810  110.5930 H           1 LSW       0.0557
     52 H16        47.6488   16.3315  117.9271 H           1 LSW       0.0541
     53 H17        46.6384   18.4784  113.6662 H           1 LSW       0.0540
     54 H18        47.7469   13.5680  113.9095 H           1 LSW       0.0795
     55 H19        42.0622   10.7645  114.0804 H           1 LSW       0.0813
     56 H20        40.8359    9.5655  113.6747 H           1 LSW       0.0813
     57 H21        41.0790   10.1594  111.4628 H           1 LSW       0.0317
     58 H22        42.6466    9.3667  111.5069 H           1 LSW       0.0317
     59 H23        43.1409   11.5161  110.6440 H           1 LSW       0.0270
     60 H24        43.6169   11.6289  112.3357 H           1 LSW       0.0270
     61 H25        39.6902   18.7934  111.4769 H           1 LSW       0.0429
     62 H26        38.6388   17.3983  111.4895 H           1 LSW       0.0429
     63 H27        41.0859   12.5395  112.6048 H           1 LSW       0.0346
     64 H28        41.2905   12.9137  110.8888 H           1 LSW       0.0346
     65 H29        47.9689   15.9142  111.7319 H           1 LSW       0.0390
     66 H30        46.4504   16.7421  112.0106 H           1 LSW       0.0390
     67 H31        44.9971   14.1156  112.9562 H           1 LSW       0.1878
     68 H32        42.8075   14.0329  113.2960 H           1 LSW       0.1099
     69 H33        46.0152   15.1314  110.4004 H           1 LSW       0.0741
     70 H34        47.9332   14.1183  116.3312 H           1 LSW       0.2216
@<TRIPOS>BOND
     1     1     3  ar
     2     4     1   1
     3     1    35  ar
     4     2     4   1
     5    33     2   1
     6     4     5   1
     7     5    23   1
     8    20     6   1
     9    27     7  ar
    10    28     8   2
    11    27     9  ar
    12    11    10  ar
    13    12    10  ar
    14    15    11  ar
    15    16    12  ar
    16    14    13  ar
    17    13    17  ar
    18    18    14  ar
    19    29    15  ar
    20    29    16  ar
    21    17    31  ar
    22    32    18  ar
    23    30    19   2
    24    19    36   1
    25    21    20   1
    26    22    21   1
    27    24    22   1
    28    23    29   1
    29    33    24   1
    30    30    25   1
    31    25    34   1
    32    26    28  am
    33    34    26   1
    34    34    27   1
    35    28    33   1
    36    30    32   1
    37    31    32  ar
    38    31    36   1
    39     2    37   1
    40     2    38   1
    41     4    39   1
    42     5    40   1
    43     5    41   1
    44     6    42   1
    45     6    43   1
    46     6    44   1
    47    10    45   1
    48    11    46   1
    49    12    47   1
    50    13    48   1
    51    14    49   1
    52    15    50   1
    53    16    51   1
    54    17    52   1
    55    18    53   1
    56    19    54   1
    57    20    55   1
    58    20    56   1
    59    21    57   1
    60    21    58   1
    61    22    59   1
    62    22    60   1
    63    23    61   1
    64    23    62   1
    65    24    63   1
    66    24    64   1
    67    25    65   1
    68    25    66   1
    69    26    67   1
    70    33    68   1
    71    34    69   1
    72    36    70   1
@<TRIPOS>SUBSTRUCTURE
     1  LSW      1

