@<TRIPOS>MOLECULE
3l3n_ligand_064
    70    72
SMALL
GAST_HUCK
****
This file was generated by PARSER (from files_GN.cpp)

@<TRIPOS>ATOM
      1 C          43.5154   17.1157  110.0482 C.2         1 LSW       0.0847
      2 N          42.3189   14.9754  110.5605 N.4         1 LSW       0.2599
      3 O          44.7844   17.2482  110.5085 O.co2       1 LSW      -0.5643
      4 CA         43.0348   15.8096  109.5455 C.3         1 LSW       0.0340
      5 CB         42.1716   15.9601  108.2561 C.3         1 LSW       0.0122
      6 NAA        39.2236   16.8088  113.5628 N.4         1 LSW       0.2185
      7 OAC        46.7919   13.2766  110.0713 O.co2       1 LSW      -0.5665
      8 OAD        44.5924   13.0441  110.9969 O.2         1 LSW      -0.3908
      9 OAF        48.7038   13.3680  111.3026 O.co2       1 LSW      -0.5665
     10 CAG        40.9797   20.7210  106.4311 C.ar        1 LSW      -0.0687
     11 CAH        41.1541   19.5534  105.6672 C.ar        1 LSW      -0.0686
     12 CAI        40.7865   20.6244  107.8197 C.ar        1 LSW      -0.0686
     13 CAJ        47.9070   19.3693  116.4719 C.ar        1 LSW      -0.0768
     14 CAK        48.9126   18.7920  115.6685 C.ar        1 LSW      -0.0792
     15 CAL        41.1270   18.2923  106.2922 C.ar        1 LSW      -0.0603
     16 CAM        40.7703   19.3650  108.4453 C.ar        1 LSW      -0.0603
     17 CAN        46.6114   18.8138  116.5003 C.ar        1 LSW      -0.0443
     18 CAO        48.6344   17.6530  114.8826 C.ar        1 LSW      -0.0747
     19 CAP        45.4547   15.9183  114.7782 C.2         1 LSW       0.0166
     20 CAQ        39.6387   15.8095  114.5551 C.3         1 LSW      -0.0354
     21 CAR        40.9892   15.1567  114.1703 C.3         1 LSW      -0.0123
     22 CAS        40.8412   13.9714  113.1711 C.3         1 LSW      -0.0410
     23 CAT        40.8687   16.8273  108.3304 C.3         1 LSW      -0.0125
     24 CAU        42.1857   13.4632  112.5727 C.3         1 LSW       0.0081
     25 CAW        47.4045   14.9638  113.4181 C.3         1 LSW      -0.0013
     26 NAX        45.3857   14.8978  111.9966 N.am        1 LSW      -0.2657
     27 CBB        47.3796   13.6601  111.2249 C.2         1 LSW       0.0613
     28 CBC        44.4019   14.1079  111.5797 C.2         1 LSW       0.2263
     29 CBD        40.9483   18.1758  107.6950 C.ar        1 LSW      -0.0427
     30 CBE        46.7696   15.9746  114.3006 C.2         1 LSW      -0.0424
     31 CBF        46.3538   17.6698  115.7243 C.ar        1 LSW       0.0603
     32 CBG        47.3408   17.0913  114.9203 C.ar        1 LSW      -0.0214
     33 CBI        43.0203   14.5495  111.8085 C.3         1 LSW       0.0683
     34 CBJ        46.8228   14.8114  111.9720 C.3         1 LSW       0.0987
     35 OXT        42.6761   18.1677  110.1990 O.co2       1 LSW      -0.5643
     36 NXZ        45.2339   16.9440  115.6143 N.pl3       1 LSW      -0.2891
     37 H1         41.9879   14.1330  110.0797 H           1 LSW       0.2052
     38 H2         41.5003   15.5085  110.8560 H           1 LSW       0.2052
     39 H3         43.9139   15.2318  109.2467 H           1 LSW       0.1027
     40 H4         41.8798   14.9507  107.9461 H           1 LSW       0.0361
     41 H5         42.8235   16.3349  107.4613 H           1 LSW       0.0361
     42 H6         38.3878   17.2844  113.9016 H           1 LSW       0.1994
     43 H7         38.9894   16.3458  112.6835 H           1 LSW       0.1994
     44 H8         39.9743   17.4878  113.4117 H           1 LSW       0.1994
     45 H9         40.9818   21.6364  105.9744 H           1 LSW       0.0559
     46 H10        41.2917   19.6206  104.6563 H           1 LSW       0.0599
     47 H11        40.6469   21.4752  108.3726 H           1 LSW       0.0599
     48 H12        48.1191   20.1900  117.0448 H           1 LSW       0.0530
     49 H13        49.8518   19.1988  115.6584 H           1 LSW       0.0510
     50 H14        41.2252   17.4570  105.7122 H           1 LSW       0.0557
     51 H15        40.6049   19.3206  109.4547 H           1 LSW       0.0557
     52 H16        45.8795   19.2234  117.0848 H           1 LSW       0.0541
     53 H17        49.3665   17.2447  114.3018 H           1 LSW       0.0540
     54 H18        44.7623   15.2051  114.5470 H           1 LSW       0.0795
     55 H19        38.8572   15.0493  114.6455 H           1 LSW       0.0813
     56 H20        39.7394   16.3088  115.5253 H           1 LSW       0.0813
     57 H21        41.4721   14.7970  115.0805 H           1 LSW       0.0317
     58 H22        41.6338   15.9305  113.7520 H           1 LSW       0.0317
     59 H23        40.1680   14.2503  112.3533 H           1 LSW       0.0270
     60 H24        40.3746   13.1390  113.7089 H           1 LSW       0.0270
     61 H25        40.5456   16.9057  109.3704 H           1 LSW       0.0429
     62 H26        40.0658   16.2913  107.8129 H           1 LSW       0.0429
     63 H27        41.9577   12.6458  111.8794 H           1 LSW       0.0346
     64 H28        42.7819   13.0391  113.3877 H           1 LSW       0.0346
     65 H29        47.3579   14.0025  113.9299 H           1 LSW       0.0390
     66 H30        48.4584   15.2222  113.3320 H           1 LSW       0.0390
     67 H31        45.0694   15.7041  112.4143 H           1 LSW       0.1878
     68 H32        43.0274   15.4254  112.4524 H           1 LSW       0.1099
     69 H33        47.1413   15.7020  111.4237 H           1 LSW       0.0741
     70 H34        44.3947   17.1223  116.0693 H           1 LSW       0.2216
@<TRIPOS>BOND
     1     1     3  ar
     2     4     1   1
     3     1    35  ar
     4     2     4   1
     5    33     2   1
     6     4     5   1
     7     5    23   1
     8    20     6   1
     9    27     7  ar
    10    28     8   2
    11    27     9  ar
    12    11    10  ar
    13    12    10  ar
    14    15    11  ar
    15    16    12  ar
    16    14    13  ar
    17    13    17  ar
    18    18    14  ar
    19    29    15  ar
    20    29    16  ar
    21    17    31  ar
    22    32    18  ar
    23    30    19   2
    24    19    36   1
    25    21    20   1
    26    22    21   1
    27    24    22   1
    28    23    29   1
    29    33    24   1
    30    30    25   1
    31    25    34   1
    32    26    28  am
    33    34    26   1
    34    34    27   1
    35    28    33   1
    36    30    32   1
    37    31    32  ar
    38    31    36   1
    39     2    37   1
    40     2    38   1
    41     4    39   1
    42     5    40   1
    43     5    41   1
    44     6    42   1
    45     6    43   1
    46     6    44   1
    47    10    45   1
    48    11    46   1
    49    12    47   1
    50    13    48   1
    51    14    49   1
    52    15    50   1
    53    16    51   1
    54    17    52   1
    55    18    53   1
    56    19    54   1
    57    20    55   1
    58    20    56   1
    59    21    57   1
    60    21    58   1
    61    22    59   1
    62    22    60   1
    63    23    61   1
    64    23    62   1
    65    24    63   1
    66    24    64   1
    67    25    65   1
    68    25    66   1
    69    26    67   1
    70    33    68   1
    71    34    69   1
    72    36    70   1
@<TRIPOS>SUBSTRUCTURE
     1  LSW      1

