@<TRIPOS>MOLECULE
3l3n_ligand_008
    70    72
SMALL
GAST_HUCK
****
This file was generated by PARSER (from files_GN.cpp)

@<TRIPOS>ATOM
      1 C          44.1675   13.1516  107.9212 C.2         1 LSW       0.0847
      2 N          41.9225   12.9617  109.0138 N.4         1 LSW       0.2599
      3 O          44.8862   13.5690  106.8483 O.co2       1 LSW      -0.5643
      4 CA         42.7113   12.8998  107.7456 C.3         1 LSW       0.0340
      5 CB         42.0220   13.8496  106.7077 C.3         1 LSW       0.0122
      6 NAA        39.5471   16.5049  113.7014 N.4         1 LSW       0.2185
      7 OAC        44.1807    7.4908  108.5826 O.co2       1 LSW      -0.5665
      8 OAD        42.0291   10.1896  109.0468 O.2         1 LSW      -0.3908
      9 OAF        45.5846    9.2802  109.0245 O.co2       1 LSW      -0.5665
     10 CAG        39.6237   17.1747  109.9741 C.ar        1 LSW      -0.0687
     11 CAH        39.1526   16.0887  109.2153 C.ar        1 LSW      -0.0686
     12 CAI        40.9307   17.6532  109.7641 C.ar        1 LSW      -0.0686
     13 CAJ        38.5541    6.8023  108.1446 C.ar        1 LSW      -0.0768
     14 CAK        39.8175    6.1947  107.9843 C.ar        1 LSW      -0.0792
     15 CAL        39.9857   15.4780  108.2585 C.ar        1 LSW      -0.0603
     16 CAM        41.7611   17.0577  108.7997 C.ar        1 LSW      -0.0603
     17 CAN        38.3195    7.6765  109.2226 C.ar        1 LSW      -0.0443
     18 CAO        40.8671    6.4661  108.8899 C.ar        1 LSW      -0.0747
     19 CAP        40.6181    8.6748  111.7555 C.2         1 LSW       0.0166
     20 CAQ        40.0452   15.1286  113.8438 C.3         1 LSW      -0.0354
     21 CAR        40.1165   14.4122  112.4744 C.3         1 LSW      -0.0123
     22 CAS        41.1910   13.2876  112.4411 C.3         1 LSW      -0.0410
     23 CAT        42.1376   15.3891  106.9392 C.3         1 LSW      -0.0125
     24 CAU        41.0380   12.2753  111.2511 C.3         1 LSW       0.0081
     25 CAW        42.8874    7.6462  111.2209 C.3         1 LSW      -0.0013
     26 NAX        43.4076   10.1109  110.8016 N.am        1 LSW      -0.2657
     27 CBB        44.5292    8.5147  109.3928 C.2         1 LSW       0.0613
     28 CBC        42.5738   10.7570  109.9894 C.2         1 LSW       0.2263
     29 CBD        41.2955   15.9680  108.0226 C.ar        1 LSW      -0.0427
     30 CBE        41.4445    7.8651  110.9723 C.2         1 LSW      -0.0424
     31 CBF        39.3727    7.9446  110.1132 C.ar        1 LSW       0.0603
     32 CBG        40.6374    7.3739  109.9436 C.ar        1 LSW      -0.0214
     33 CBI        42.2486   12.1648  110.2413 C.3         1 LSW       0.0683
     34 CBJ        43.8837    8.7513  110.7085 C.3         1 LSW       0.0987
     35 OXT        44.8495   12.4246  108.8415 O.co2       1 LSW      -0.5643
     36 NXZ        39.3861    8.6973  111.2239 N.pl3       1 LSW      -0.2891
     37 H1         40.9631   12.6996  108.7575 H           1 LSW       0.2052
     38 H2         41.8988   13.9429  109.3078 H           1 LSW       0.2052
     39 H3         42.6169   11.8907  107.3363 H           1 LSW       0.1027
     40 H4         40.9554   13.5894  106.6496 H           1 LSW       0.0361
     41 H5         42.4527   13.6295  105.7193 H           1 LSW       0.0361
     42 H6         39.3959   16.9066  114.6305 H           1 LSW       0.1994
     43 H7         38.6619   16.5170  113.1837 H           1 LSW       0.1994
     44 H8         40.2362   17.0678  113.1983 H           1 LSW       0.1994
     45 H9         39.0209   17.6158  110.6710 H           1 LSW       0.0559
     46 H10        38.2036   15.7386  109.3613 H           1 LSW       0.0599
     47 H11        41.2766   18.4417  110.3131 H           1 LSW       0.0599
     48 H12        37.8034    6.6019  107.4894 H           1 LSW       0.0530
     49 H13        39.9712    5.5465  107.2103 H           1 LSW       0.0510
     50 H14        39.6362   14.6757  107.7240 H           1 LSW       0.0557
     51 H15        42.7026   17.4347  108.6507 H           1 LSW       0.0557
     52 H16        37.4083    8.1142  109.3580 H           1 LSW       0.0541
     53 H17        41.7705    6.0125  108.7720 H           1 LSW       0.0540
     54 H18        40.8949    9.1618  112.6066 H           1 LSW       0.0795
     55 H19        39.3655   14.5899  114.5141 H           1 LSW       0.0813
     56 H20        41.0391   15.1645  114.3068 H           1 LSW       0.0813
     57 H21        40.3559   15.1385  111.6962 H           1 LSW       0.0317
     58 H22        39.1418   13.9722  112.2684 H           1 LSW       0.0317
     59 H23        41.1276   12.7176  113.3820 H           1 LSW       0.0270
     60 H24        42.1915   13.7451  112.4287 H           1 LSW       0.0270
     61 H25        41.8488   15.8783  106.0048 H           1 LSW       0.0429
     62 H26        43.1925   15.6335  107.0936 H           1 LSW       0.0429
     63 H27        40.1203   12.5164  110.7077 H           1 LSW       0.0346
     64 H28        40.8351   11.2985  111.7027 H           1 LSW       0.0346
     65 H29        43.1827    6.6784  110.8099 H           1 LSW       0.0390
     66 H30        43.0196    7.5594  112.3048 H           1 LSW       0.0390
     67 H31        43.7689   10.6367  111.5366 H           1 LSW       0.1878
     68 H32        43.1272   12.6541  110.6864 H           1 LSW       0.1099
     69 H33        44.7191    8.7155  111.4177 H           1 LSW       0.0741
     70 H34        38.6351    9.2054  111.5688 H           1 LSW       0.2216
@<TRIPOS>BOND
     1     1     3  ar
     2     4     1   1
     3     1    35  ar
     4     2     4   1
     5    33     2   1
     6     4     5   1
     7     5    23   1
     8    20     6   1
     9    27     7  ar
    10    28     8   2
    11    27     9  ar
    12    11    10  ar
    13    12    10  ar
    14    15    11  ar
    15    16    12  ar
    16    14    13  ar
    17    13    17  ar
    18    18    14  ar
    19    29    15  ar
    20    29    16  ar
    21    17    31  ar
    22    32    18  ar
    23    30    19   2
    24    19    36   1
    25    21    20   1
    26    22    21   1
    27    24    22   1
    28    23    29   1
    29    33    24   1
    30    30    25   1
    31    25    34   1
    32    26    28  am
    33    34    26   1
    34    34    27   1
    35    28    33   1
    36    30    32   1
    37    31    32  ar
    38    31    36   1
    39     2    37   1
    40     2    38   1
    41     4    39   1
    42     5    40   1
    43     5    41   1
    44     6    42   1
    45     6    43   1
    46     6    44   1
    47    10    45   1
    48    11    46   1
    49    12    47   1
    50    13    48   1
    51    14    49   1
    52    15    50   1
    53    16    51   1
    54    17    52   1
    55    18    53   1
    56    19    54   1
    57    20    55   1
    58    20    56   1
    59    21    57   1
    60    21    58   1
    61    22    59   1
    62    22    60   1
    63    23    61   1
    64    23    62   1
    65    24    63   1
    66    24    64   1
    67    25    65   1
    68    25    66   1
    69    26    67   1
    70    33    68   1
    71    34    69   1
    72    36    70   1
@<TRIPOS>SUBSTRUCTURE
     1  LSW      1

