@<TRIPOS>MOLECULE
3l3n_ligand_020
    70    72
SMALL
GAST_HUCK
****
This file was generated by PARSER (from files_GN.cpp)

@<TRIPOS>ATOM
      1 C          43.6917   13.3087  109.0906 C.2         1 LSW       0.0847
      2 N          44.0872   15.5792  110.2387 N.4         1 LSW       0.2599
      3 O          44.6264   12.6152  108.3839 O.co2       1 LSW      -0.5643
      4 CA         44.0844   14.0754  110.3107 C.3         1 LSW       0.0340
      5 CB         43.3656   13.5320  111.5851 C.3         1 LSW       0.0122
      6 NAA        42.5021   19.6109  104.4598 N.4         1 LSW       0.2185
      7 OAC        37.9932   17.0736  109.3252 O.co2       1 LSW      -0.5665
      8 OAD        41.4478   16.1310  108.1746 O.2         1 LSW      -0.3908
      9 OAF        39.1626   15.1014  109.4714 O.co2       1 LSW      -0.5665
     10 CAG        39.5522   15.5638  114.8308 C.ar        1 LSW      -0.0687
     11 CAH        40.9518   15.6152  114.8750 C.ar        1 LSW      -0.0686
     12 CAI        38.9052   14.8768  113.7903 C.ar        1 LSW      -0.0686
     13 CAJ        40.0016   21.4443  106.6331 C.ar        1 LSW      -0.0768
     14 CAK        39.6830   20.0695  106.6870 C.ar        1 LSW      -0.0792
     15 CAL        41.7127   15.0193  113.8504 C.ar        1 LSW      -0.0603
     16 CAM        39.6741   14.2463  112.7870 C.ar        1 LSW      -0.0603
     17 CAN        40.3519   22.1348  107.8099 C.ar        1 LSW      -0.0443
     18 CAO        39.7077   19.3734  107.9109 C.ar        1 LSW      -0.0747
     19 CAP        40.5351   20.8694  111.1127 C.2         1 LSW       0.0166
     20 CAQ        43.4817   18.5681  104.7826 C.3         1 LSW      -0.0354
     21 CAR        43.2401   17.9398  106.1787 C.3         1 LSW      -0.0123
     22 CAS        44.4978   17.2058  106.7188 C.3         1 LSW      -0.0410
     23 CAT        41.8126   13.7142  111.6231 C.3         1 LSW      -0.0125
     24 CAU        44.2362   16.0567  107.7291 C.3         1 LSW       0.0081
     25 CAW        39.7593   18.4576  111.1711 C.3         1 LSW      -0.0013
     26 NAX        41.5177   16.9743  110.2382 N.am        1 LSW      -0.2657
     27 CBB        39.1222   16.4333  109.7019 C.2         1 LSW       0.0613
     28 CBC        42.1060   16.5009  109.1392 C.2         1 LSW       0.2263
     29 CBD        41.0924   14.3001  112.7999 C.ar        1 LSW      -0.0427
     30 CBE        40.1481   19.6993  110.4413 C.2         1 LSW      -0.0424
     31 CBF        40.3749   21.4234  109.0179 C.ar        1 LSW       0.0603
     32 CBG        40.0525   20.0633  109.0923 C.ar        1 LSW      -0.0214
     33 CBI        43.5689   16.4162  109.1028 C.3         1 LSW       0.0683
     34 CBJ        40.1263   17.0418  110.6124 C.3         1 LSW       0.0987
     35 OXT        42.4082   13.2737  108.6415 O.co2       1 LSW      -0.5643
     36 NXZ        40.6656   21.8777  110.2415 N.pl3       1 LSW      -0.2891
     37 H1         45.0752   15.8398  110.3118 H           1 LSW       0.2052
     38 H2         43.6439   15.9265  111.0954 H           1 LSW       0.2052
     39 H3         45.1449   13.8305  110.4654 H           1 LSW       0.1027
     40 H4         43.8528   13.9846  112.4403 H           1 LSW       0.0361
     41 H5         43.5873   12.4662  111.6640 H           1 LSW       0.0361
     42 H6         42.5289   19.7782  103.4518 H           1 LSW       0.1994
     43 H7         42.7480   20.4712  104.9557 H           1 LSW       0.1994
     44 H8         41.5633   19.3077  104.7265 H           1 LSW       0.1994
     45 H9         38.9997   16.0333  115.5593 H           1 LSW       0.0559
     46 H10        41.4222   16.1189  115.6331 H           1 LSW       0.0599
     47 H11        37.8854   14.8435  113.7483 H           1 LSW       0.0599
     48 H12        39.9761   21.9461  105.7426 H           1 LSW       0.0530
     49 H13        39.4321   19.5818  105.8239 H           1 LSW       0.0510
     50 H14        42.7113   15.1567  113.9095 H           1 LSW       0.0557
     51 H15        39.1704   13.7873  112.0148 H           1 LSW       0.0557
     52 H16        40.5666   23.1340  107.7893 H           1 LSW       0.0541
     53 H17        39.4919   18.3826  107.9237 H           1 LSW       0.0540
     54 H18        40.6674   20.9664  112.1206 H           1 LSW       0.0795
     55 H19        44.4785   19.0138  104.7225 H           1 LSW       0.0813
     56 H20        43.4032   17.7885  104.0191 H           1 LSW       0.0813
     57 H21        42.4081   17.2396  106.0797 H           1 LSW       0.0317
     58 H22        42.9471   18.7217  106.8827 H           1 LSW       0.0317
     59 H23        45.1668   17.9387  107.1711 H           1 LSW       0.0270
     60 H24        45.0371   16.7662  105.8767 H           1 LSW       0.0270
     61 H25        41.3856   12.7216  111.4404 H           1 LSW       0.0429
     62 H26        41.5001   14.3206  110.7710 H           1 LSW       0.0429
     63 H27        45.2101   15.6147  107.9405 H           1 LSW       0.0346
     64 H28        43.6527   15.2879  107.2184 H           1 LSW       0.0346
     65 H29        38.6820   18.5160  111.3487 H           1 LSW       0.0390
     66 H30        40.2165   18.5187  112.1671 H           1 LSW       0.0390
     67 H31        42.1359   17.2446  110.9425 H           1 LSW       0.1878
     68 H32        43.9193   17.4195  109.3444 H           1 LSW       0.1099
     69 H33        40.0726   16.3890  111.4815 H           1 LSW       0.0741
     70 H34        40.9302   22.7875  110.4547 H           1 LSW       0.2216
@<TRIPOS>BOND
     1     1     3  ar
     2     4     1   1
     3     1    35  ar
     4     2     4   1
     5    33     2   1
     6     4     5   1
     7     5    23   1
     8    20     6   1
     9    27     7  ar
    10    28     8   2
    11    27     9  ar
    12    11    10  ar
    13    12    10  ar
    14    15    11  ar
    15    16    12  ar
    16    14    13  ar
    17    13    17  ar
    18    18    14  ar
    19    29    15  ar
    20    29    16  ar
    21    17    31  ar
    22    32    18  ar
    23    30    19   2
    24    19    36   1
    25    21    20   1
    26    22    21   1
    27    24    22   1
    28    23    29   1
    29    33    24   1
    30    30    25   1
    31    25    34   1
    32    26    28  am
    33    34    26   1
    34    34    27   1
    35    28    33   1
    36    30    32   1
    37    31    32  ar
    38    31    36   1
    39     2    37   1
    40     2    38   1
    41     4    39   1
    42     5    40   1
    43     5    41   1
    44     6    42   1
    45     6    43   1
    46     6    44   1
    47    10    45   1
    48    11    46   1
    49    12    47   1
    50    13    48   1
    51    14    49   1
    52    15    50   1
    53    16    51   1
    54    17    52   1
    55    18    53   1
    56    19    54   1
    57    20    55   1
    58    20    56   1
    59    21    57   1
    60    21    58   1
    61    22    59   1
    62    22    60   1
    63    23    61   1
    64    23    62   1
    65    24    63   1
    66    24    64   1
    67    25    65   1
    68    25    66   1
    69    26    67   1
    70    33    68   1
    71    34    69   1
    72    36    70   1
@<TRIPOS>SUBSTRUCTURE
     1  LSW      1

