@<TRIPOS>MOLECULE
3l3n_ligand_081
    70    72
SMALL
GAST_HUCK
****
This file was generated by PARSER (from files_GN.cpp)

@<TRIPOS>ATOM
      1 C          44.2085   13.3775  111.2088 C.2         1 LSW       0.0847
      2 N          44.2733   15.7160  110.2130 N.4         1 LSW       0.2599
      3 O          44.1871   12.2193  110.5092 O.co2       1 LSW      -0.5643
      4 CA         45.0257   14.5226  110.7371 C.3         1 LSW       0.0340
      5 CB         46.0797   14.9330  111.8100 C.3         1 LSW       0.0122
      6 NAA        42.2946   19.6675  104.5787 N.4         1 LSW       0.2185
      7 OAC        42.9397   11.8982  106.3711 O.co2       1 LSW      -0.5665
      8 OAD        43.6482   14.3082  107.7721 O.2         1 LSW      -0.3908
      9 OAF        43.8081   10.8303  108.2479 O.co2       1 LSW      -0.5665
     10 CAG        47.7440   17.5576  116.1160 C.ar        1 LSW      -0.0687
     11 CAH        46.4001   17.2189  116.3425 C.ar        1 LSW      -0.0686
     12 CAI        48.3883   17.1089  114.9517 C.ar        1 LSW      -0.0686
     13 CAJ        41.8046    7.7459  105.0892 C.ar        1 LSW      -0.0768
     14 CAK        42.0269    7.9434  106.4709 C.ar        1 LSW      -0.0792
     15 CAL        45.6974   16.4533  115.3947 C.ar        1 LSW      -0.0603
     16 CAM        47.6879   16.3228  114.0165 C.ar        1 LSW      -0.0603
     17 CAN        40.9970    8.6400  104.3561 C.ar        1 LSW      -0.0443
     18 CAO        41.4676    9.0588  107.1260 C.ar        1 LSW      -0.0747
     19 CAP        39.5046   11.6550  105.5322 C.2         1 LSW       0.0166
     20 CAQ        42.6456   18.3459  105.1119 C.3         1 LSW      -0.0354
     21 CAR        42.1453   18.1754  106.5666 C.3         1 LSW      -0.0123
     22 CAS        42.9784   17.1200  107.3465 C.3         1 LSW      -0.0410
     23 CAT        45.5134   15.2165  113.2340 C.3         1 LSW      -0.0125
     24 CAU        42.5097   16.9182  108.8175 C.3         1 LSW       0.0081
     25 CAW        40.2728   11.9421  107.9753 C.3         1 LSW      -0.0013
     26 NAX        41.9040   13.5104  108.9596 N.am        1 LSW      -0.2657
     27 CBB        42.8471   11.6045  107.6893 C.2         1 LSW       0.0613
     28 CBC        42.8166   14.4357  108.6636 C.2         1 LSW       0.2263
     29 CBD        46.3223   16.0075  114.2051 C.ar        1 LSW      -0.0427
     30 CBE        40.1278   11.2019  106.6984 C.2         1 LSW      -0.0424
     31 CBF        40.4513    9.7507  105.0212 C.ar        1 LSW       0.0603
     32 CBG        40.6958    9.9707  106.3765 C.ar        1 LSW      -0.0214
     33 CBI        42.9410   15.5961  109.5371 C.3         1 LSW       0.0683
     34 CBJ        41.7363   12.1502  108.5194 C.3         1 LSW       0.0987
     35 OXT        43.4049   13.4745  112.2919 O.co2       1 LSW      -0.5643
     36 NXZ        39.7109   10.7656  104.5459 N.pl3       1 LSW      -0.2891
     37 H1         44.8990   16.1914  109.5585 H           1 LSW       0.2052
     38 H2         44.1360   16.3510  111.0025 H           1 LSW       0.2052
     39 H3         45.6053   14.1631  109.8796 H           1 LSW       0.1027
     40 H4         46.6035   15.8260  111.4504 H           1 LSW       0.0361
     41 H5         46.8221   14.1317  111.8967 H           1 LSW       0.0361
     42 H6         42.5698   19.7146  103.5971 H           1 LSW       0.1994
     43 H7         42.7829   20.3964  105.1013 H           1 LSW       0.1994
     44 H8         41.2846   19.8118  104.6529 H           1 LSW       0.1994
     45 H9         48.2530   18.1242  116.7993 H           1 LSW       0.0559
     46 H10        45.9344   17.5369  117.1939 H           1 LSW       0.0599
     47 H11        49.3659   17.3555  114.7834 H           1 LSW       0.0599
     48 H12        42.2287    6.9433  104.6213 H           1 LSW       0.0530
     49 H13        42.6182    7.2909  106.9928 H           1 LSW       0.0510
     50 H14        44.7147   16.2279  115.5794 H           1 LSW       0.0557
     51 H15        48.1907   15.9842  113.1961 H           1 LSW       0.0557
     52 H16        40.8403    8.4986  103.3532 H           1 LSW       0.0541
     53 H17        41.6417    9.2155  108.1210 H           1 LSW       0.0540
     54 H18        39.0146   12.5424  105.4199 H           1 LSW       0.0795
     55 H19        43.7316   18.2265  105.0766 H           1 LSW       0.0813
     56 H20        42.1864   17.5912  104.4713 H           1 LSW       0.0813
     57 H21        41.0891   17.8772  106.5426 H           1 LSW       0.0317
     58 H22        42.2137   19.1388  107.0847 H           1 LSW       0.0317
     59 H23        44.0291   17.4261  107.3470 H           1 LSW       0.0270
     60 H24        42.9000   16.1588  106.8216 H           1 LSW       0.0270
     61 H25        45.3057   14.2610  113.7178 H           1 LSW       0.0429
     62 H26        44.5594   15.7250  113.1010 H           1 LSW       0.0429
     63 H27        41.4132   16.9558  108.8266 H           1 LSW       0.0346
     64 H28        42.8664   17.7626  109.4181 H           1 LSW       0.0346
     65 H29        39.6848   11.3961  108.7176 H           1 LSW       0.0390
     66 H30        39.7751   12.9099  107.8566 H           1 LSW       0.0390
     67 H31        41.2829   13.7655  109.6660 H           1 LSW       0.1878
     68 H32        42.2347   15.4829  110.3702 H           1 LSW       0.1099
     69 H33        41.7793   11.5882  109.4607 H           1 LSW       0.0741
     70 H34        39.4077   10.8570  103.6261 H           1 LSW       0.2216
@<TRIPOS>BOND
     1     1     3  ar
     2     4     1   1
     3     1    35  ar
     4     2     4   1
     5    33     2   1
     6     4     5   1
     7     5    23   1
     8    20     6   1
     9    27     7  ar
    10    28     8   2
    11    27     9  ar
    12    11    10  ar
    13    12    10  ar
    14    15    11  ar
    15    16    12  ar
    16    14    13  ar
    17    13    17  ar
    18    18    14  ar
    19    29    15  ar
    20    29    16  ar
    21    17    31  ar
    22    32    18  ar
    23    30    19   2
    24    19    36   1
    25    21    20   1
    26    22    21   1
    27    24    22   1
    28    23    29   1
    29    33    24   1
    30    30    25   1
    31    25    34   1
    32    26    28  am
    33    34    26   1
    34    34    27   1
    35    28    33   1
    36    30    32   1
    37    31    32  ar
    38    31    36   1
    39     2    37   1
    40     2    38   1
    41     4    39   1
    42     5    40   1
    43     5    41   1
    44     6    42   1
    45     6    43   1
    46     6    44   1
    47    10    45   1
    48    11    46   1
    49    12    47   1
    50    13    48   1
    51    14    49   1
    52    15    50   1
    53    16    51   1
    54    17    52   1
    55    18    53   1
    56    19    54   1
    57    20    55   1
    58    20    56   1
    59    21    57   1
    60    21    58   1
    61    22    59   1
    62    22    60   1
    63    23    61   1
    64    23    62   1
    65    24    63   1
    66    24    64   1
    67    25    65   1
    68    25    66   1
    69    26    67   1
    70    33    68   1
    71    34    69   1
    72    36    70   1
@<TRIPOS>SUBSTRUCTURE
     1  LSW      1

