@<TRIPOS>MOLECULE
3l3n_ligand_036
    70    72
SMALL
GAST_HUCK
****
This file was generated by PARSER (from files_GN.cpp)

@<TRIPOS>ATOM
      1 C          47.0892   13.7694  111.1391 C.2         1 LSW       0.0847
      2 N          45.0448   14.5715  112.3115 N.4         1 LSW       0.2599
      3 O          46.5175   13.2692  110.0154 O.co2       1 LSW      -0.5643
      4 CA         46.4250   14.9045  111.8444 C.3         1 LSW       0.0340
      5 CB         47.2511   15.3918  113.0831 C.3         1 LSW       0.0122
      6 NAA        40.1999   16.3327  114.8368 N.4         1 LSW       0.2185
      7 OAC        42.7742   17.4652  108.0289 O.co2       1 LSW      -0.5665
      8 OAD        44.1894   15.9236  110.0384 O.2         1 LSW      -0.3908
      9 OAF        43.2993   15.4594  107.0096 O.co2       1 LSW      -0.5665
     10 CAG        49.1534   18.6323  116.6405 C.ar        1 LSW      -0.0687
     11 CAH        49.1349   17.2248  116.6941 C.ar        1 LSW      -0.0686
     12 CAI        48.2935   19.3062  115.7558 C.ar        1 LSW      -0.0686
     13 CAJ        40.6753   20.3432  112.6612 C.ar        1 LSW      -0.0768
     14 CAK        40.7392   18.9737  113.0123 C.ar        1 LSW      -0.0792
     15 CAL        48.2602   16.4980  115.8675 C.ar        1 LSW      -0.0603
     16 CAM        47.4376   18.5740  114.9110 C.ar        1 LSW      -0.0603
     17 CAN        40.4894   20.7255  111.3181 C.ar        1 LSW      -0.0443
     18 CAO        40.6275   17.9785  112.0197 C.ar        1 LSW      -0.0747
     19 CAP        40.1615   18.5814  108.4822 C.2         1 LSW       0.0166
     20 CAQ        40.0235   14.8721  114.7472 C.3         1 LSW      -0.0354
     21 CAR        40.5958   14.2405  113.4549 C.3         1 LSW      -0.0123
     22 CAS        42.0569   14.6516  113.1169 C.3         1 LSW      -0.0410
     23 CAT        46.5212   16.3888  114.0300 C.3         1 LSW      -0.0125
     24 CAU        42.8191   13.5310  112.3306 C.3         1 LSW       0.0081
     25 CAW        40.3109   16.1610  109.3135 C.3         1 LSW      -0.0013
     26 NAX        42.3287   14.7055  109.7837 N.am        1 LSW      -0.2657
     27 CBB        42.4791   16.1591  107.8323 C.2         1 LSW       0.0613
     28 CBC        43.4979   14.9524  110.3670 C.2         1 LSW       0.2263
     29 CBD        47.4159   17.1568  114.9381 C.ar        1 LSW      -0.0427
     30 CBE        40.3588   17.6351  109.4972 C.2         1 LSW      -0.0424
     31 CBF        40.3768   19.7207  110.3368 C.ar        1 LSW       0.0603
     32 CBG        40.4581   18.3665  110.6757 C.ar        1 LSW      -0.0214
     33 CBI        43.9850   14.0270  111.4073 C.3         1 LSW       0.0683
     34 CBJ        41.5903   15.4285  108.7722 C.3         1 LSW       0.0987
     35 OXT        48.3472   13.3476  111.4414 O.co2       1 LSW      -0.5643
     36 NXZ        40.1929   19.8139  109.0109 N.pl3       1 LSW      -0.2891
     37 H1         44.6459   15.4278  112.7214 H           1 LSW       0.2052
     38 H2         45.1817   13.9033  113.0725 H           1 LSW       0.2052
     39 H3         46.3632   15.7474  111.1425 H           1 LSW       0.1027
     40 H4         48.1653   15.8664  112.7168 H           1 LSW       0.0361
     41 H5         47.5432   14.5200  113.6794 H           1 LSW       0.0361
     42 H6         39.8222   16.6500  115.7389 H           1 LSW       0.1994
     43 H7         39.6843   16.7892  114.0745 H           1 LSW       0.1994
     44 H8         41.1977   16.5715  114.7782 H           1 LSW       0.1994
     45 H9         49.7904   19.1614  117.2398 H           1 LSW       0.0559
     46 H10        49.7637   16.7335  117.3355 H           1 LSW       0.0599
     47 H11        48.2974   20.3311  115.7231 H           1 LSW       0.0599
     48 H12        40.7765   21.0553  113.3874 H           1 LSW       0.0530
     49 H13        40.8680   18.7070  113.9921 H           1 LSW       0.0510
     50 H14        48.2533   15.4778  115.9373 H           1 LSW       0.0557
     51 H15        46.8272   19.0902  114.2752 H           1 LSW       0.0557
     52 H16        40.4432   21.7073  111.0564 H           1 LSW       0.0541
     53 H17        40.6760   16.9781  112.2747 H           1 LSW       0.0540
     54 H18        40.0112   18.3769  107.4956 H           1 LSW       0.0795
     55 H19        38.9512   14.6566  114.7877 H           1 LSW       0.0813
     56 H20        40.4976   14.4203  115.6251 H           1 LSW       0.0813
     57 H21        39.9527   14.5242  112.6097 H           1 LSW       0.0317
     58 H22        40.5448   13.1448  113.5637 H           1 LSW       0.0317
     59 H23        42.6085   14.8756  114.0411 H           1 LSW       0.0270
     60 H24        42.0113   15.5688  112.5142 H           1 LSW       0.0270
     61 H25        45.8170   15.8383  114.6586 H           1 LSW       0.0429
     62 H26        45.9373   17.0746  113.4118 H           1 LSW       0.0429
     63 H27        42.1261   12.9530  111.7112 H           1 LSW       0.0346
     64 H28        43.2398   12.8259  113.0699 H           1 LSW       0.0346
     65 H29        39.4778   15.9625  108.6317 H           1 LSW       0.0390
     66 H30        40.0242   15.6971  110.2604 H           1 LSW       0.0390
     67 H31        41.8987   13.8818  110.0821 H           1 LSW       0.1878
     68 H32        44.3965   13.1348  110.9051 H           1 LSW       0.1099
     69 H33        41.1862   14.6083  108.1639 H           1 LSW       0.0741
     70 H34        40.0847   20.6431  108.5245 H           1 LSW       0.2216
@<TRIPOS>BOND
     1     1     3  ar
     2     4     1   1
     3     1    35  ar
     4     2     4   1
     5    33     2   1
     6     4     5   1
     7     5    23   1
     8    20     6   1
     9    27     7  ar
    10    28     8   2
    11    27     9  ar
    12    11    10  ar
    13    12    10  ar
    14    15    11  ar
    15    16    12  ar
    16    14    13  ar
    17    13    17  ar
    18    18    14  ar
    19    29    15  ar
    20    29    16  ar
    21    17    31  ar
    22    32    18  ar
    23    30    19   2
    24    19    36   1
    25    21    20   1
    26    22    21   1
    27    24    22   1
    28    23    29   1
    29    33    24   1
    30    30    25   1
    31    25    34   1
    32    26    28  am
    33    34    26   1
    34    34    27   1
    35    28    33   1
    36    30    32   1
    37    31    32  ar
    38    31    36   1
    39     2    37   1
    40     2    38   1
    41     4    39   1
    42     5    40   1
    43     5    41   1
    44     6    42   1
    45     6    43   1
    46     6    44   1
    47    10    45   1
    48    11    46   1
    49    12    47   1
    50    13    48   1
    51    14    49   1
    52    15    50   1
    53    16    51   1
    54    17    52   1
    55    18    53   1
    56    19    54   1
    57    20    55   1
    58    20    56   1
    59    21    57   1
    60    21    58   1
    61    22    59   1
    62    22    60   1
    63    23    61   1
    64    23    62   1
    65    24    63   1
    66    24    64   1
    67    25    65   1
    68    25    66   1
    69    26    67   1
    70    33    68   1
    71    34    69   1
    72    36    70   1
@<TRIPOS>SUBSTRUCTURE
     1  LSW      1

