@<TRIPOS>MOLECULE
3l3n_ligand_091
    70    72
SMALL
GAST_HUCK
****
This file was generated by PARSER (from files_GN.cpp)

@<TRIPOS>ATOM
      1 C          45.3704   16.1208  110.7952 C.2         1 LSW       0.0847
      2 N          43.8005   15.4798  109.0977 N.4         1 LSW       0.2599
      3 O          46.4379   15.6757  111.4849 O.co2       1 LSW      -0.5643
      4 CA         44.1645   15.2746  110.5272 C.3         1 LSW       0.0340
      5 CB         44.3744   13.7588  110.8793 C.3         1 LSW       0.0122
      6 NAA        43.0351   19.7438  104.3284 N.4         1 LSW       0.2185
      7 OAC        40.6883   12.2735  105.0470 O.co2       1 LSW      -0.5665
      8 OAD        43.5454   13.8516  106.8532 O.2         1 LSW      -0.3908
      9 OAF        39.7765   10.4993  106.2300 O.co2       1 LSW      -0.5665
     10 CAG        40.0714   14.7863  113.5853 C.ar        1 LSW      -0.0687
     11 CAH        41.4310   14.9257  113.9137 C.ar        1 LSW      -0.0686
     12 CAI        39.6975   14.0329  112.4592 C.ar        1 LSW      -0.0686
     13 CAJ        41.8382    8.6059  112.9736 C.ar        1 LSW      -0.0768
     14 CAK        43.0102    8.6968  112.1905 C.ar        1 LSW      -0.0792
     15 CAL        42.4142   14.2867  113.1287 C.ar        1 LSW      -0.0603
     16 CAM        40.6829   13.4232  111.6606 C.ar        1 LSW      -0.0603
     17 CAN        40.5961    8.9847  112.4367 C.ar        1 LSW      -0.0443
     18 CAO        42.9497    9.1829  110.8645 C.ar        1 LSW      -0.0747
     19 CAP        39.9044   10.1850  109.1705 C.2         1 LSW       0.0166
     20 CAQ        43.1275   18.3509  104.7649 C.3         1 LSW      -0.0354
     21 CAR        42.2607   18.0397  106.0195 C.3         1 LSW      -0.0123
     22 CAS        42.4122   16.5558  106.4514 C.3         1 LSW      -0.0410
     23 CAT        43.0954   12.9045  111.1320 C.3         1 LSW      -0.0125
     24 CAU        41.7761   16.1678  107.8211 C.3         1 LSW       0.0081
     25 CAW        42.1578   10.2751  107.8902 C.3         1 LSW      -0.0013
     26 NAX        41.8796   12.7369  107.8374 N.am        1 LSW      -0.2657
     27 CBB        40.6655   11.5257  106.1805 C.2         1 LSW       0.0613
     28 CBC        42.6675   13.8035  107.7110 C.2         1 LSW       0.2263
     29 CBD        42.0567   13.5411  111.9779 C.ar        1 LSW      -0.0427
     30 CBE        41.2968   10.0505  109.0849 C.2         1 LSW      -0.0424
     31 CBF        40.5428    9.4536  111.1181 C.ar        1 LSW       0.0603
     32 CBG        41.6976    9.5654  110.3347 C.ar        1 LSW      -0.0214
     33 CBI        42.4830   14.9882  108.5643 C.3         1 LSW       0.0683
     34 CBJ        41.8973   11.5475  107.0205 C.3         1 LSW       0.0987
     35 OXT        45.2398   17.4705  110.7182 O.co2       1 LSW      -0.5643
     36 NXZ        39.4872    9.8205  110.3913 N.pl3       1 LSW      -0.2891
     37 H1         44.5636   15.1163  108.5147 H           1 LSW       0.2052
     38 H2         43.7950   16.5044  108.9744 H           1 LSW       0.2052
     39 H3         43.3678   15.6980  111.1429 H           1 LSW       0.1027
     40 H4         44.9916   13.6615  111.7767 H           1 LSW       0.0361
     41 H5         44.9457   13.2941  110.0640 H           1 LSW       0.0361
     42 H6         43.8160   19.9443  103.6949 H           1 LSW       0.1994
     43 H7         43.0901   20.3815  105.1213 H           1 LSW       0.1994
     44 H8         42.1639   19.8883  103.8156 H           1 LSW       0.1994
     45 H9         39.3625   15.2303  114.1650 H           1 LSW       0.0559
     46 H10        41.7125   15.4806  114.7310 H           1 LSW       0.0599
     47 H11        38.7097   13.9316  112.2193 H           1 LSW       0.0599
     48 H12        41.9004    8.2423  113.9328 H           1 LSW       0.0530
     49 H13        43.9137    8.3994  112.5792 H           1 LSW       0.0510
     50 H14        43.4007   14.3921  113.4000 H           1 LSW       0.0557
     51 H15        40.3858   12.8866  110.8395 H           1 LSW       0.0557
     52 H16        39.7470    8.9076  112.9940 H           1 LSW       0.0541
     53 H17        43.8070    9.2437  110.2997 H           1 LSW       0.0540
     54 H18        39.2669   10.5065  108.4328 H           1 LSW       0.0795
     55 H19        44.1727   18.1391  104.9866 H           1 LSW       0.0813
     56 H20        42.8187   17.7227  103.9224 H           1 LSW       0.0813
     57 H21        41.2092   18.2494  105.8102 H           1 LSW       0.0317
     58 H22        42.5968   18.6939  106.8231 H           1 LSW       0.0317
     59 H23        43.4857   16.3107  106.4709 H           1 LSW       0.0270
     60 H24        41.9515   15.9249  105.6804 H           1 LSW       0.0270
     61 H25        43.3967   11.9840  111.6277 H           1 LSW       0.0429
     62 H26        42.6825   12.6169  110.1662 H           1 LSW       0.0429
     63 H27        40.7252   15.9063  107.6563 H           1 LSW       0.0346
     64 H28        41.7956   17.0360  108.4826 H           1 LSW       0.0346
     65 H29        42.0743    9.3985  107.2527 H           1 LSW       0.0390
     66 H30        43.2005   10.3250  108.2130 H           1 LSW       0.0390
     67 H31        41.1894   12.8007  108.5337 H           1 LSW       0.1878
     68 H32        41.8249   14.7448  109.4043 H           1 LSW       0.1099
     69 H33        42.7306   11.5926  106.3066 H           1 LSW       0.0741
     70 H34        38.5744    9.8159  110.6927 H           1 LSW       0.2216
@<TRIPOS>BOND
     1     1     3  ar
     2     4     1   1
     3     1    35  ar
     4     2     4   1
     5    33     2   1
     6     4     5   1
     7     5    23   1
     8    20     6   1
     9    27     7  ar
    10    28     8   2
    11    27     9  ar
    12    11    10  ar
    13    12    10  ar
    14    15    11  ar
    15    16    12  ar
    16    14    13  ar
    17    13    17  ar
    18    18    14  ar
    19    29    15  ar
    20    29    16  ar
    21    17    31  ar
    22    32    18  ar
    23    30    19   2
    24    19    36   1
    25    21    20   1
    26    22    21   1
    27    24    22   1
    28    23    29   1
    29    33    24   1
    30    30    25   1
    31    25    34   1
    32    26    28  am
    33    34    26   1
    34    34    27   1
    35    28    33   1
    36    30    32   1
    37    31    32  ar
    38    31    36   1
    39     2    37   1
    40     2    38   1
    41     4    39   1
    42     5    40   1
    43     5    41   1
    44     6    42   1
    45     6    43   1
    46     6    44   1
    47    10    45   1
    48    11    46   1
    49    12    47   1
    50    13    48   1
    51    14    49   1
    52    15    50   1
    53    16    51   1
    54    17    52   1
    55    18    53   1
    56    19    54   1
    57    20    55   1
    58    20    56   1
    59    21    57   1
    60    21    58   1
    61    22    59   1
    62    22    60   1
    63    23    61   1
    64    23    62   1
    65    24    63   1
    66    24    64   1
    67    25    65   1
    68    25    66   1
    69    26    67   1
    70    33    68   1
    71    34    69   1
    72    36    70   1
@<TRIPOS>SUBSTRUCTURE
     1  LSW      1

