@<TRIPOS>MOLECULE
3l3n_ligand_007
    70    72
SMALL
GAST_HUCK
****
This file was generated by PARSER (from files_GN.cpp)

@<TRIPOS>ATOM
      1 C          45.6812   13.4259  110.3468 C.2         1 LSW       0.0847
      2 N          43.6482   14.9559  110.4777 N.4         1 LSW       0.2599
      3 O          44.8987   12.4644  109.7897 O.co2       1 LSW      -0.5643
      4 CA         45.1287   14.7844  110.6863 C.3         1 LSW       0.0340
      5 CB         45.4158   15.1627  112.1817 C.3         1 LSW       0.0122
      6 NAA        42.2437   19.6151  104.5655 N.4         1 LSW       0.2185
      7 OAC        39.6889   12.3420  106.5800 O.co2       1 LSW      -0.5665
      8 OAD        43.6397   13.9592  107.2976 O.2         1 LSW      -0.3908
      9 OAF        41.6893   12.5535  105.3825 O.co2       1 LSW      -0.5665
     10 CAG        47.6084   16.4090  116.7103 C.ar        1 LSW      -0.0687
     11 CAH        47.9267   15.0849  116.3478 C.ar        1 LSW      -0.0686
     12 CAI        47.0879   17.2946  115.7453 C.ar        1 LSW      -0.0686
     13 CAJ        43.9342    7.8711  112.0892 C.ar        1 LSW      -0.0768
     14 CAK        43.9742    7.6989  110.6843 C.ar        1 LSW      -0.0792
     15 CAL        47.6918   14.6404  115.0345 C.ar        1 LSW      -0.0603
     16 CAM        46.8495   16.8406  114.4312 C.ar        1 LSW      -0.0603
     17 CAN        43.1118    8.8619  112.6670 C.ar        1 LSW      -0.0443
     18 CAO        43.2029    8.5227  109.8374 C.ar        1 LSW      -0.0747
     19 CAP        40.9933   11.1666  110.9858 C.2         1 LSW       0.0166
     20 CAQ        42.7207   18.3029  105.0021 C.3         1 LSW      -0.0354
     21 CAR        42.9772   18.2527  106.5268 C.3         1 LSW      -0.0123
     22 CAS        42.7104   16.8377  107.1233 C.3         1 LSW      -0.0410
     23 CAT        46.8992   15.0304  112.6584 C.3         1 LSW      -0.0125
     24 CAU        43.4974   16.5032  108.4243 C.3         1 LSW       0.0081
     25 CAW        41.1181   10.7123  108.4861 C.3         1 LSW      -0.0013
     26 NAX        42.0521   13.0492  108.5653 N.am        1 LSW      -0.2657
     27 CBB        41.0464   12.2598  106.5380 C.2         1 LSW       0.0613
     28 CBC        42.9223   14.0236  108.2930 C.2         1 LSW       0.2263
     29 CBD        47.1403   15.5036  114.0588 C.ar        1 LSW      -0.0427
     30 CBE        41.5348   10.4816  109.8889 C.2         1 LSW      -0.0424
     31 CBF        42.3575    9.6835  111.8154 C.ar        1 LSW       0.0603
     32 CBG        42.4017    9.5265  110.4255 C.ar        1 LSW      -0.0214
     33 CBI        42.9969   15.2076  109.1524 C.3         1 LSW       0.0683
     34 CBJ        41.8375   11.8831  107.7384 C.3         1 LSW       0.0987
     35 OXT        47.0199   13.2733  110.1939 O.co2       1 LSW      -0.5643
     36 NXZ        41.5038   10.6707  112.1273 N.pl3       1 LSW      -0.2891
     37 H1         43.3856   15.7741  111.0465 H           1 LSW       0.2052
     38 H2         43.1779   14.1490  110.9017 H           1 LSW       0.2052
     39 H3         45.6368   15.5242  110.0608 H           1 LSW       0.1027
     40 H4         44.7716   14.5553  112.8289 H           1 LSW       0.0361
     41 H5         45.1387   16.2109  112.3214 H           1 LSW       0.0361
     42 H6         42.3266   19.6769  103.5488 H           1 LSW       0.1994
     43 H7         42.7792   20.3711  104.9965 H           1 LSW       0.1994
     44 H8         41.2616   19.7152  104.8318 H           1 LSW       0.1994
     45 H9         47.7550   16.7300  117.6710 H           1 LSW       0.0559
     46 H10        48.3180   14.4477  117.0466 H           1 LSW       0.0599
     47 H11        46.8680   18.2590  116.0024 H           1 LSW       0.0599
     48 H12        44.4974    7.2710  112.6941 H           1 LSW       0.0530
     49 H13        44.5557    6.9661  110.2754 H           1 LSW       0.0510
     50 H14        47.9305   13.6735  114.7986 H           1 LSW       0.0557
     51 H15        46.4879   17.5001  113.7432 H           1 LSW       0.0557
     52 H16        43.0722    8.9826  113.6780 H           1 LSW       0.0541
     53 H17        43.2210    8.3992  108.8183 H           1 LSW       0.0540
     54 H18        40.2863   11.8953  110.9479 H           1 LSW       0.0795
     55 H19        43.6473   18.0738  104.4681 H           1 LSW       0.0813
     56 H20        41.9654   17.5704  104.7127 H           1 LSW       0.0813
     57 H21        42.3260   18.9704  107.0353 H           1 LSW       0.0317
     58 H22        44.0098   18.5457  106.7109 H           1 LSW       0.0317
     59 H23        42.9678   16.0874  106.3678 H           1 LSW       0.0270
     60 H24        41.6328   16.7483  107.3038 H           1 LSW       0.0270
     61 H25        47.5536   15.6083  112.0014 H           1 LSW       0.0429
     62 H26        47.2096   13.9805  112.5769 H           1 LSW       0.0429
     63 H27        43.4121   17.3417  109.1183 H           1 LSW       0.0346
     64 H28        44.5527   16.3908  108.1645 H           1 LSW       0.0346
     65 H29        40.0334   10.8693  108.4760 H           1 LSW       0.0390
     66 H30        41.3173    9.7846  107.9430 H           1 LSW       0.0390
     67 H31        41.5061   13.1492  109.3721 H           1 LSW       0.1878
     68 H32        41.9593   15.4413  109.4160 H           1 LSW       0.1099
     69 H33        42.8236   11.4914  107.4246 H           1 LSW       0.0741
     70 H34        41.2862   10.9598  113.0265 H           1 LSW       0.2216
@<TRIPOS>BOND
     1     1     3  ar
     2     4     1   1
     3     1    35  ar
     4     2     4   1
     5    33     2   1
     6     4     5   1
     7     5    23   1
     8    20     6   1
     9    27     7  ar
    10    28     8   2
    11    27     9  ar
    12    11    10  ar
    13    12    10  ar
    14    15    11  ar
    15    16    12  ar
    16    14    13  ar
    17    13    17  ar
    18    18    14  ar
    19    29    15  ar
    20    29    16  ar
    21    17    31  ar
    22    32    18  ar
    23    30    19   2
    24    19    36   1
    25    21    20   1
    26    22    21   1
    27    24    22   1
    28    23    29   1
    29    33    24   1
    30    30    25   1
    31    25    34   1
    32    26    28  am
    33    34    26   1
    34    34    27   1
    35    28    33   1
    36    30    32   1
    37    31    32  ar
    38    31    36   1
    39     2    37   1
    40     2    38   1
    41     4    39   1
    42     5    40   1
    43     5    41   1
    44     6    42   1
    45     6    43   1
    46     6    44   1
    47    10    45   1
    48    11    46   1
    49    12    47   1
    50    13    48   1
    51    14    49   1
    52    15    50   1
    53    16    51   1
    54    17    52   1
    55    18    53   1
    56    19    54   1
    57    20    55   1
    58    20    56   1
    59    21    57   1
    60    21    58   1
    61    22    59   1
    62    22    60   1
    63    23    61   1
    64    23    62   1
    65    24    63   1
    66    24    64   1
    67    25    65   1
    68    25    66   1
    69    26    67   1
    70    33    68   1
    71    34    69   1
    72    36    70   1
@<TRIPOS>SUBSTRUCTURE
     1  LSW      1

