@<TRIPOS>MOLECULE
3l3n_ligand_013
    70    72
SMALL
GAST_HUCK
****
This file was generated by PARSER (from files_GN.cpp)

@<TRIPOS>ATOM
      1 C          47.1137   13.7325  111.0037 C.2         1 LSW       0.0847
      2 N          44.9635   14.4597  112.0309 N.4         1 LSW       0.2599
      3 O          46.6416   13.1087  109.9023 O.co2       1 LSW      -0.5643
      4 CA         46.3363   14.8524  111.6061 C.3         1 LSW       0.0340
      5 CB         47.0668   15.4492  112.8568 C.3         1 LSW       0.0122
      6 NAA        41.8663    9.1840  113.8511 N.4         1 LSW       0.2185
      7 OAC        41.8965   18.8708  108.9686 O.co2       1 LSW      -0.5665
      8 OAD        43.8978   13.9916  108.8886 O.2         1 LSW      -0.3908
      9 OAF        41.2743   17.6082  110.8057 O.co2       1 LSW      -0.5665
     10 CAG        48.0629   17.8223  117.3781 C.ar        1 LSW      -0.0687
     11 CAH        47.6830   16.4826  117.1947 C.ar        1 LSW      -0.0686
     12 CAI        47.8713   18.7510  116.3395 C.ar        1 LSW      -0.0686
     13 CAJ        39.5984   11.5541  106.2836 C.ar        1 LSW      -0.0768
     14 CAK        40.8761   11.9910  105.8581 C.ar        1 LSW      -0.0792
     15 CAL        47.1341   16.0669  115.9665 C.ar        1 LSW      -0.0603
     16 CAM        47.3106   18.3348  115.1160 C.ar        1 LSW      -0.0603
     17 CAN        38.8632   12.3121  107.2203 C.ar        1 LSW      -0.0443
     18 CAO        41.4231   13.1865  106.3612 C.ar        1 LSW      -0.0747
     19 CAP        39.8030   15.3938  108.7396 C.2         1 LSW       0.0166
     20 CAQ        42.0962    9.9271  112.6056 C.3         1 LSW      -0.0354
     21 CAR        41.2362   11.2121  112.4810 C.3         1 LSW      -0.0123
     22 CAS        41.8222   12.2294  111.4547 C.3         1 LSW      -0.0410
     23 CAT        46.2866   16.5465  113.6385 C.3         1 LSW      -0.0125
     24 CAU        42.8605   13.2035  112.0906 C.3         1 LSW       0.0081
     25 CAW        42.1018   16.0380  107.7902 C.3         1 LSW      -0.0013
     26 NAX        43.0273   15.6067  110.1341 N.am        1 LSW      -0.2657
     27 CBB        41.9938   17.7132  109.6634 C.2         1 LSW       0.0613
     28 CBC        43.6189   14.4292  110.0005 C.2         1 LSW       0.2263
     29 CBD        46.9431   16.9839  114.9052 C.ar        1 LSW      -0.0427
     30 CBE        40.9391   15.1440  107.9584 C.2         1 LSW      -0.0424
     31 CBF        39.4236   13.5004  107.7182 C.ar        1 LSW       0.0603
     32 CBG        40.6868   13.9351  107.3036 C.ar        1 LSW      -0.0214
     33 CBI        44.0349   13.6668  111.1761 C.3         1 LSW       0.0683
     34 CBJ        42.7626   16.5772  109.1009 C.3         1 LSW       0.0987
     35 OXT        48.3507   13.3685  111.4136 O.co2       1 LSW      -0.5643
     36 NXZ        38.9220   14.3917  108.5829 N.pl3       1 LSW      -0.2891
     37 H1         44.4670   15.3224  112.2627 H           1 LSW       0.2052
     38 H2         45.0972   13.9335  112.8915 H           1 LSW       0.2052
     39 H3         46.2496   15.6421  110.8522 H           1 LSW       0.1027
     40 H4         48.0188   15.8758  112.5338 H           1 LSW       0.0361
     41 H5         47.2886   14.6294  113.5440 H           1 LSW       0.0361
     42 H6         42.3551    8.2873  113.7929 H           1 LSW       0.1994
     43 H7         40.8731    9.0084  114.0147 H           1 LSW       0.1994
     44 H8         42.2430    9.7060  114.6463 H           1 LSW       0.1994
     45 H9         48.4604   18.1251  118.2714 H           1 LSW       0.0559
     46 H10        47.7935   15.8115  117.9569 H           1 LSW       0.0599
     47 H11        48.1299   19.7313  116.4775 H           1 LSW       0.0599
     48 H12        39.2053   10.6886  105.9080 H           1 LSW       0.0530
     49 H13        41.3943   11.4420  105.1685 H           1 LSW       0.0510
     50 H14        46.8497   15.0897  115.8629 H           1 LSW       0.0557
     51 H15        47.1515   19.0325  114.3869 H           1 LSW       0.0557
     52 H16        37.9332   12.0136  107.5153 H           1 LSW       0.0541
     53 H17        42.3397   13.5021  106.0323 H           1 LSW       0.0540
     54 H18        39.6470   16.2134  109.3331 H           1 LSW       0.0795
     55 H19        41.8859    9.2667  111.7629 H           1 LSW       0.0813
     56 H20        43.1576   10.1768  112.5767 H           1 LSW       0.0813
     57 H21        41.1438   11.6907  113.4602 H           1 LSW       0.0317
     58 H22        40.2313   10.9202  112.1641 H           1 LSW       0.0317
     59 H23        41.0006   12.8228  111.0362 H           1 LSW       0.0270
     60 H24        42.2728   11.6771  110.6235 H           1 LSW       0.0270
     61 H25        45.2991   16.1694  113.9109 H           1 LSW       0.0429
     62 H26        46.1329   17.3926  112.9658 H           1 LSW       0.0429
     63 H27        43.3157   12.7166  112.9619 H           1 LSW       0.0346
     64 H28        42.3273   14.0839  112.4687 H           1 LSW       0.0346
     65 H29        41.7891   16.8769  107.1595 H           1 LSW       0.0390
     66 H30        42.8776   15.5097  107.2207 H           1 LSW       0.0390
     67 H31        42.8600   15.8988  111.0441 H           1 LSW       0.1878
     68 H32        44.5670   12.7575  110.8675 H           1 LSW       0.1099
     69 H33        43.7398   16.9844  108.8243 H           1 LSW       0.0741
     70 H34        38.0532   14.3361  109.0074 H           1 LSW       0.2216
@<TRIPOS>BOND
     1     1     3  ar
     2     4     1   1
     3     1    35  ar
     4     2     4   1
     5    33     2   1
     6     4     5   1
     7     5    23   1
     8    20     6   1
     9    27     7  ar
    10    28     8   2
    11    27     9  ar
    12    11    10  ar
    13    12    10  ar
    14    15    11  ar
    15    16    12  ar
    16    14    13  ar
    17    13    17  ar
    18    18    14  ar
    19    29    15  ar
    20    29    16  ar
    21    17    31  ar
    22    32    18  ar
    23    30    19   2
    24    19    36   1
    25    21    20   1
    26    22    21   1
    27    24    22   1
    28    23    29   1
    29    33    24   1
    30    30    25   1
    31    25    34   1
    32    26    28  am
    33    34    26   1
    34    34    27   1
    35    28    33   1
    36    30    32   1
    37    31    32  ar
    38    31    36   1
    39     2    37   1
    40     2    38   1
    41     4    39   1
    42     5    40   1
    43     5    41   1
    44     6    42   1
    45     6    43   1
    46     6    44   1
    47    10    45   1
    48    11    46   1
    49    12    47   1
    50    13    48   1
    51    14    49   1
    52    15    50   1
    53    16    51   1
    54    17    52   1
    55    18    53   1
    56    19    54   1
    57    20    55   1
    58    20    56   1
    59    21    57   1
    60    21    58   1
    61    22    59   1
    62    22    60   1
    63    23    61   1
    64    23    62   1
    65    24    63   1
    66    24    64   1
    67    25    65   1
    68    25    66   1
    69    26    67   1
    70    33    68   1
    71    34    69   1
    72    36    70   1
@<TRIPOS>SUBSTRUCTURE
     1  LSW      1

