@<TRIPOS>MOLECULE
3l3n_ligand_026
    70    72
SMALL
GAST_HUCK
****
This file was generated by PARSER (from files_GN.cpp)

@<TRIPOS>ATOM
      1 C          46.2900   13.9754  110.6811 C.2         1 LSW       0.0847
      2 N          44.5072   14.5643  109.1886 N.4         1 LSW       0.2599
      3 O          46.3109   15.1115  111.4310 O.co2       1 LSW      -0.5643
      4 CA         44.9955   13.4996  110.1192 C.3         1 LSW       0.0340
      5 CB         45.1530   12.0764  109.4655 C.3         1 LSW       0.0122
      6 NAA        42.2667   19.5423  104.5761 N.4         1 LSW       0.2185
      7 OAC        41.4154   13.3126  105.3326 O.co2       1 LSW      -0.5665
      8 OAD        43.3626   13.3716  106.9092 O.2         1 LSW      -0.3908
      9 OAF        40.3560   11.3041  105.0007 O.co2       1 LSW      -0.5665
     10 CAG        43.8389    7.4584  111.5289 C.ar        1 LSW      -0.0687
     11 CAH        43.4365    8.6481  112.1741 C.ar        1 LSW      -0.0686
     12 CAI        44.3068    7.4984  110.2099 C.ar        1 LSW      -0.0686
     13 CAJ        40.7424   10.0140  113.0878 C.ar        1 LSW      -0.0768
     14 CAK        40.8074   11.3074  112.5225 C.ar        1 LSW      -0.0792
     15 CAL        43.4813    9.8655  111.4859 C.ar        1 LSW      -0.0603
     16 CAM        44.3453    8.7277  109.5163 C.ar        1 LSW      -0.0603
     17 CAN        40.4512    8.9021  112.2909 C.ar        1 LSW      -0.0443
     18 CAO        40.5648   11.4934  111.1470 C.ar        1 LSW      -0.0747
     19 CAP        39.7696    8.8484  108.7978 C.2         1 LSW       0.0166
     20 CAQ        42.6949   18.1871  104.9380 C.3         1 LSW      -0.0354
     21 CAR        42.3653   17.8457  106.4223 C.3         1 LSW      -0.0123
     22 CAS        42.9238   16.4511  106.8446 C.3         1 LSW      -0.0410
     23 CAT        43.8645   11.2077  109.3856 C.3         1 LSW      -0.0125
     24 CAU        42.6576   16.0916  108.3347 C.3         1 LSW       0.0081
     25 CAW        39.7379   11.2558  107.9398 C.3         1 LSW      -0.0013
     26 NAX        41.5387   12.9209  108.0814 N.am        1 LSW      -0.2657
     27 CBB        40.8377   12.2067  105.8759 C.2         1 LSW       0.0613
     28 CBC        42.6408   13.6285  107.8466 C.2         1 LSW       0.2263
     29 CBD        43.9211    9.9162  110.1397 C.ar        1 LSW      -0.0427
     30 CBE        39.9627   10.2277  108.9850 C.2         1 LSW      -0.0424
     31 CBF        40.2338    9.0980  110.9123 C.ar        1 LSW       0.0603
     32 CBG        40.2787   10.3746  110.3401 C.ar        1 LSW      -0.0214
     33 CBI        43.0620   14.6504  108.8172 C.3         1 LSW       0.0683
     34 CBJ        41.0451   11.8246  107.2958 C.3         1 LSW       0.0987
     35 OXT        47.4679   13.3638  110.4655 O.co2       1 LSW      -0.5643
     36 NXZ        39.9301    8.2056  109.9613 N.pl3       1 LSW      -0.2891
     37 H1         45.0640   14.5253  108.3314 H           1 LSW       0.2052
     38 H2         44.7209   15.4520  109.6456 H           1 LSW       0.2052
     39 H3         44.3170   13.4076  110.9696 H           1 LSW       0.1027
     40 H4         45.8983   11.5055  110.0223 H           1 LSW       0.0361
     41 H5         45.5520   12.2187  108.4579 H           1 LSW       0.0361
     42 H6         42.5039   19.7075  103.5931 H           1 LSW       0.1994
     43 H7         42.7448   20.2379  105.1530 H           1 LSW       0.1994
     44 H8         41.2575   19.6341  104.6954 H           1 LSW       0.1994
     45 H9         43.7648    6.5693  112.0289 H           1 LSW       0.0559
     46 H10        43.0929    8.6126  113.1370 H           1 LSW       0.0599
     47 H11        44.6071    6.6425  109.7449 H           1 LSW       0.0599
     48 H12        40.9208    9.8866  114.0915 H           1 LSW       0.0530
     49 H13        41.0221   12.1138  113.1187 H           1 LSW       0.0510
     50 H14        43.1662   10.7171  111.9505 H           1 LSW       0.0557
     51 H15        44.6818    8.7370  108.5469 H           1 LSW       0.0557
     52 H16        40.3959    7.9610  112.6910 H           1 LSW       0.0541
     53 H17        40.5811   12.4369  110.7464 H           1 LSW       0.0540
     54 H18        39.5249    8.4001  107.9141 H           1 LSW       0.0795
     55 H19        43.7673   18.1042  104.7726 H           1 LSW       0.0813
     56 H20        42.1837   17.4834  104.2768 H           1 LSW       0.0813
     57 H21        41.2797   17.8551  106.5459 H           1 LSW       0.0317
     58 H22        42.7954   18.6113  107.0653 H           1 LSW       0.0317
     59 H23        43.9927   16.4142  106.6542 H           1 LSW       0.0270
     60 H24        42.4307   15.7164  106.2070 H           1 LSW       0.0270
     61 H25        43.6721   10.9772  108.3414 H           1 LSW       0.0429
     62 H26        43.0039   11.7629  109.7514 H           1 LSW       0.0429
     63 H27        41.5877   16.2170  108.5253 H           1 LSW       0.0346
     64 H28        43.1756   16.8218  108.9634 H           1 LSW       0.0346
     65 H29        39.1462   12.0694  108.3628 H           1 LSW       0.0390
     66 H30        39.1139   10.8010  107.1689 H           1 LSW       0.0390
     67 H31        41.0193   13.1638  108.8650 H           1 LSW       0.1878
     68 H32        42.5068   14.4860  109.7471 H           1 LSW       0.1099
     69 H33        41.7899   11.0225  107.2899 H           1 LSW       0.0741
     70 H34        39.8203    7.2493  110.1010 H           1 LSW       0.2216
@<TRIPOS>BOND
     1     1     3  ar
     2     4     1   1
     3     1    35  ar
     4     2     4   1
     5    33     2   1
     6     4     5   1
     7     5    23   1
     8    20     6   1
     9    27     7  ar
    10    28     8   2
    11    27     9  ar
    12    11    10  ar
    13    12    10  ar
    14    15    11  ar
    15    16    12  ar
    16    14    13  ar
    17    13    17  ar
    18    18    14  ar
    19    29    15  ar
    20    29    16  ar
    21    17    31  ar
    22    32    18  ar
    23    30    19   2
    24    19    36   1
    25    21    20   1
    26    22    21   1
    27    24    22   1
    28    23    29   1
    29    33    24   1
    30    30    25   1
    31    25    34   1
    32    26    28  am
    33    34    26   1
    34    34    27   1
    35    28    33   1
    36    30    32   1
    37    31    32  ar
    38    31    36   1
    39     2    37   1
    40     2    38   1
    41     4    39   1
    42     5    40   1
    43     5    41   1
    44     6    42   1
    45     6    43   1
    46     6    44   1
    47    10    45   1
    48    11    46   1
    49    12    47   1
    50    13    48   1
    51    14    49   1
    52    15    50   1
    53    16    51   1
    54    17    52   1
    55    18    53   1
    56    19    54   1
    57    20    55   1
    58    20    56   1
    59    21    57   1
    60    21    58   1
    61    22    59   1
    62    22    60   1
    63    23    61   1
    64    23    62   1
    65    24    63   1
    66    24    64   1
    67    25    65   1
    68    25    66   1
    69    26    67   1
    70    33    68   1
    71    34    69   1
    72    36    70   1
@<TRIPOS>SUBSTRUCTURE
     1  LSW      1

