@<TRIPOS>MOLECULE
3l3n_ligand_031
    70    72
SMALL
GAST_HUCK
****
This file was generated by PARSER (from files_GN.cpp)

@<TRIPOS>ATOM
      1 C          44.5800   13.8623  111.6933 C.2         1 LSW       0.0847
      2 N          44.3308   15.9888  110.3387 N.4         1 LSW       0.2599
      3 O          44.4424   12.7887  110.8675 O.co2       1 LSW      -0.5643
      4 CA         45.2355   15.1028  111.1583 C.3         1 LSW       0.0340
      5 CB         46.0628   15.9567  112.2092 C.3         1 LSW       0.0122
      6 NAA        42.3127   19.5219  104.6708 N.4         1 LSW       0.2185
      7 OAC        43.3614   13.1817  106.1744 O.co2       1 LSW      -0.5665
      8 OAD        44.2182   13.9179  108.4281 O.2         1 LSW      -0.3908
      9 OAF        41.3044   12.3869  105.4995 O.co2       1 LSW      -0.5665
     10 CAG        48.0919   18.2436  116.4749 C.ar        1 LSW      -0.0687
     11 CAH        46.7115   18.0633  116.6143 C.ar        1 LSW      -0.0686
     12 CAI        48.7815   17.5856  115.4177 C.ar        1 LSW      -0.0686
     13 CAJ        41.3643   10.2205  113.2331 C.ar        1 LSW      -0.0768
     14 CAK        41.8110   11.4282  112.6414 C.ar        1 LSW      -0.0792
     15 CAL        46.0056   17.2340  115.7263 C.ar        1 LSW      -0.0603
     16 CAM        48.0744   16.7509  114.5429 C.ar        1 LSW      -0.0603
     17 CAN        40.5645    9.3234  112.4848 C.ar        1 LSW      -0.0443
     18 CAO        41.4944   11.7305  111.3078 C.ar        1 LSW      -0.0747
     19 CAP        39.4915    9.6312  109.1209 C.2         1 LSW       0.0166
     20 CAQ        42.6920   18.2115  105.2104 C.3         1 LSW      -0.0354
     21 CAR        42.1918   18.0163  106.6630 C.3         1 LSW      -0.0123
     22 CAS        43.0126   16.9625  107.4665 C.3         1 LSW      -0.0410
     23 CAT        45.9142   15.6644  113.7359 C.3         1 LSW      -0.0125
     24 CAU        42.4063   16.6618  108.8721 C.3         1 LSW       0.0081
     25 CAW        40.3805   11.8436  108.1800 C.3         1 LSW      -0.0013
     26 NAX        42.0321   13.5934  108.6908 N.am        1 LSW      -0.2657
     27 CBB        42.1630   12.6466  106.5134 C.2         1 LSW       0.0613
     28 CBC        43.1524   14.2760  108.9123 C.2         1 LSW       0.2263
     29 CBD        46.6739   16.5769  114.6576 C.ar        1 LSW      -0.0427
     30 CBE        40.2397   10.8198  109.2480 C.2         1 LSW      -0.0424
     31 CBF        40.2699    9.6350  111.1656 C.ar        1 LSW       0.0603
     32 CBG        40.7097   10.8212  110.5554 C.ar        1 LSW      -0.0214
     33 CBI        43.0710   15.5055  109.6996 C.3         1 LSW       0.0683
     34 CBJ        41.8475   12.3785  107.9451 C.3         1 LSW       0.0987
     35 OXT        43.8646   13.8393  112.8506 O.co2       1 LSW      -0.5643
     36 NXZ        39.5404    8.9484  110.2661 N.pl3       1 LSW      -0.2891
     37 H1         44.9048   16.4009  109.5929 H           1 LSW       0.2052
     38 H2         44.0348   16.7513  110.9468 H           1 LSW       0.2052
     39 H3         45.9735   14.7488  110.4283 H           1 LSW       0.1027
     40 H4         45.8490   17.0225  112.0652 H           1 LSW       0.0361
     41 H5         47.1251   15.8282  111.9669 H           1 LSW       0.0361
     42 H6         42.5928   19.5801  103.6940 H           1 LSW       0.1994
     43 H7         42.7777   20.2646  105.1964 H           1 LSW       0.1994
     44 H8         41.3001   19.6425  104.7376 H           1 LSW       0.1994
     45 H9         48.6117   18.8510  117.1136 H           1 LSW       0.0559
     46 H10        46.2226   18.5293  117.3772 H           1 LSW       0.0599
     47 H11        49.7847   17.7066  115.3306 H           1 LSW       0.0599
     48 H12        41.6053   10.0029  114.1977 H           1 LSW       0.0530
     49 H13        42.3763   12.0753  113.1946 H           1 LSW       0.0510
     50 H14        45.0057   17.0969  115.8715 H           1 LSW       0.0557
     51 H15        48.5883   16.2611  113.8122 H           1 LSW       0.0557
     52 H16        40.2286    8.4557  112.9156 H           1 LSW       0.0541
     53 H17        41.8107   12.6012  110.8910 H           1 LSW       0.0540
     54 H18        38.9990    9.3374  108.2838 H           1 LSW       0.0795
     55 H19        43.7797   18.1231  105.1726 H           1 LSW       0.0813
     56 H20        42.2574   17.4438  104.5667 H           1 LSW       0.0813
     57 H21        41.1421   17.7055  106.6306 H           1 LSW       0.0317
     58 H22        42.2374   18.9747  107.1926 H           1 LSW       0.0317
     59 H23        44.0394   17.3180  107.5809 H           1 LSW       0.0270
     60 H24        43.0365   16.0368  106.8808 H           1 LSW       0.0270
     61 H25        46.2493   14.6441  113.9431 H           1 LSW       0.0429
     62 H26        44.8555   15.7166  113.9904 H           1 LSW       0.0429
     63 H27        41.3447   16.4245  108.7313 H           1 LSW       0.0346
     64 H28        42.4480   17.5747  109.4710 H           1 LSW       0.0346
     65 H29        39.6935   12.6632  108.4058 H           1 LSW       0.0390
     66 H30        40.0068   11.3849  107.2570 H           1 LSW       0.0390
     67 H31        41.2207   13.9699  109.0909 H           1 LSW       0.1878
     68 H32        42.3940   15.3000  110.5342 H           1 LSW       0.1099
     69 H33        42.5469   11.6117  108.2960 H           1 LSW       0.0741
     70 H34        39.1122    8.0947  110.4299 H           1 LSW       0.2216
@<TRIPOS>BOND
     1     1     3  ar
     2     4     1   1
     3     1    35  ar
     4     2     4   1
     5    33     2   1
     6     4     5   1
     7     5    23   1
     8    20     6   1
     9    27     7  ar
    10    28     8   2
    11    27     9  ar
    12    11    10  ar
    13    12    10  ar
    14    15    11  ar
    15    16    12  ar
    16    14    13  ar
    17    13    17  ar
    18    18    14  ar
    19    29    15  ar
    20    29    16  ar
    21    17    31  ar
    22    32    18  ar
    23    30    19   2
    24    19    36   1
    25    21    20   1
    26    22    21   1
    27    24    22   1
    28    23    29   1
    29    33    24   1
    30    30    25   1
    31    25    34   1
    32    26    28  am
    33    34    26   1
    34    34    27   1
    35    28    33   1
    36    30    32   1
    37    31    32  ar
    38    31    36   1
    39     2    37   1
    40     2    38   1
    41     4    39   1
    42     5    40   1
    43     5    41   1
    44     6    42   1
    45     6    43   1
    46     6    44   1
    47    10    45   1
    48    11    46   1
    49    12    47   1
    50    13    48   1
    51    14    49   1
    52    15    50   1
    53    16    51   1
    54    17    52   1
    55    18    53   1
    56    19    54   1
    57    20    55   1
    58    20    56   1
    59    21    57   1
    60    21    58   1
    61    22    59   1
    62    22    60   1
    63    23    61   1
    64    23    62   1
    65    24    63   1
    66    24    64   1
    67    25    65   1
    68    25    66   1
    69    26    67   1
    70    33    68   1
    71    34    69   1
    72    36    70   1
@<TRIPOS>SUBSTRUCTURE
     1  LSW      1

