@<TRIPOS>MOLECULE
3l4u_ligand_026
    47    47
SMALL
GAST_HUCK
****
This file was generated by PARSER (from files_GN.cpp)

@<TRIPOS>ATOM
      1 OAA        -1.9696  -24.6086  -18.8525 O.3         1 DSK      -0.3924
      2 OAB         1.1744  -15.2570  -21.9274 O.3         1 DSK      -0.3900
      3 OAC        -3.5289  -24.8584  -21.1071 O.3         1 DSK      -0.3869
      4 OAD        -2.9439  -19.8476  -20.0555 O.3         1 DSK      -0.3845
      5 OAE        -0.1315  -15.8602  -17.4544 O.3         1 DSK      -0.3844
      6 OAF        -3.5029  -23.1298  -23.2360 O.3         1 DSK      -0.3865
      7 OAG        -2.4171  -19.7644  -23.5219 O.3         1 DSK      -0.3864
      8 OAH        -0.8663  -21.8672  -23.7949 O.3         1 DSK      -0.3865
      9 OAI        -2.9580  -14.9940  -19.6380 O.3         1 DSK      -0.3840
     10 CAJ        -1.5124  -24.0141  -20.0685 C.3         1 DSK       0.0727
     11 CAK         0.6696  -15.0744  -20.6039 C.3         1 DSK       0.0944
     12 CAL        -1.6921  -18.1766  -21.3339 C.3         1 DSK       0.1385
     13 CAM        -1.5855  -17.4260  -18.6103 C.3         1 DSK       0.1386
     14 CAN        -2.7184  -23.6834  -20.9873 C.3         1 DSK       0.1065
     15 CAO        -1.9609  -19.6997  -21.0895 C.3         1 DSK       0.1280
     16 CAP        -1.4195  -16.0017  -18.0612 C.3         1 DSK       0.1303
     17 CAQ        -2.3315  -23.2211  -22.4247 C.3         1 DSK       0.1114
     18 CAR        -2.4050  -20.5573  -22.3352 C.3         1 DSK       0.1137
     19 CAS        -1.5601  -21.8746  -22.5439 C.3         1 DSK       0.1119
     20 CAT        -1.5698  -15.0800  -19.2900 C.3         1 DSK       0.1349
     21 CAU        -0.7465  -15.7101  -20.4482 C.3         1 DSK       0.1711
     22 SAV        -0.5572  -17.4813  -20.0928 S.3         1 DSK       0.0029
     23 H1         -1.1566  -24.8077  -18.3390 H           1 DSK       0.2095
     24 H2          1.3700  -16.2125  -22.0193 H           1 DSK       0.2096
     25 H3         -3.9528  -24.9712  -20.2294 H           1 DSK       0.2100
     26 H4         -3.7798  -19.4812  -20.4349 H           1 DSK       0.2101
     27 H5         -0.0611  -14.9081  -17.2466 H           1 DSK       0.2101
     28 H6         -3.7683  -24.0552  -23.4323 H           1 DSK       0.2100
     29 H7         -2.8604  -20.2947  -24.2113 H           1 DSK       0.2100
     30 H8         -1.5677  -21.7894  -24.4824 H           1 DSK       0.2100
     31 H9         -2.9816  -14.4944  -20.4820 H           1 DSK       0.2101
     32 H10        -0.8351  -24.7124  -20.5718 H           1 DSK       0.0584
     33 H11        -0.9617  -23.1045  -19.8092 H           1 DSK       0.0584
     34 H12         0.6317  -13.9937  -20.4276 H           1 DSK       0.0608
     35 H13         1.3804  -15.5067  -19.8828 H           1 DSK       0.0608
     36 H14        -2.6420  -17.6196  -21.3817 H           1 DSK       0.0867
     37 H15        -1.1781  -18.0448  -22.2901 H           1 DSK       0.0867
     38 H16        -2.6400  -17.6165  -18.8332 H           1 DSK       0.0867
     39 H17        -1.2250  -18.1762  -17.9106 H           1 DSK       0.0867
     40 H18        -3.3228  -22.9106  -20.5041 H           1 DSK       0.0643
     41 H19        -1.0319  -20.1104  -20.6797 H           1 DSK       0.0667
     42 H20        -2.1828  -15.7871  -17.3096 H           1 DSK       0.0668
     43 H21        -1.7009  -24.0076  -22.8627 H           1 DSK       0.0647
     44 H22        -3.4541  -20.8198  -22.1884 H           1 DSK       0.0647
     45 H23        -0.7459  -21.9292  -21.8279 H           1 DSK       0.0647
     46 H24        -1.2344  -14.0685  -19.0338 H           1 DSK       0.0672
     47 H25        -1.2695  -15.5436  -21.3920 H           1 DSK       0.0928
@<TRIPOS>BOND
     1    10     1   1
     2    11     2   1
     3    14     3   1
     4    15     4   1
     5    16     5   1
     6    17     6   1
     7    18     7   1
     8    19     8   1
     9    20     9   1
    10    14    10   1
    11    21    11   1
    12    12    15   1
    13    22    12   1
    14    16    13   1
    15    13    22   1
    16    17    14   1
    17    15    18   1
    18    20    16   1
    19    19    17   1
    20    18    19   1
    21    20    21   1
    22    21    22   1
    23     1    23   1
    24     2    24   1
    25     3    25   1
    26     4    26   1
    27     5    27   1
    28     6    28   1
    29     7    29   1
    30     8    30   1
    31     9    31   1
    32    10    32   1
    33    10    33   1
    34    11    34   1
    35    11    35   1
    36    12    36   1
    37    12    37   1
    38    13    38   1
    39    13    39   1
    40    14    40   1
    41    15    41   1
    42    16    42   1
    43    17    43   1
    44    18    44   1
    45    19    45   1
    46    20    46   1
    47    21    47   1
@<TRIPOS>SUBSTRUCTURE
     1  DSK     10

