@<TRIPOS>MOLECULE
3l4u_ligand_011
    47    47
SMALL
GAST_HUCK
****
This file was generated by PARSER (from files_GN.cpp)

@<TRIPOS>ATOM
      1 OAA         0.1504  -21.2750  -24.9233 O.3         1 DSK      -0.3924
      2 OAB        -1.7309  -15.6056  -17.8897 O.3         1 DSK      -0.3900
      3 OAC        -1.5446  -23.6549  -24.7147 O.3         1 DSK      -0.3869
      4 OAD        -3.9513  -19.2220  -21.9084 O.3         1 DSK      -0.3845
      5 OAE        -1.1830  -13.9193  -20.8953 O.3         1 DSK      -0.3844
      6 OAF        -0.1377  -22.5593  -21.4847 O.3         1 DSK      -0.3865
      7 OAG        -3.6823  -21.8109  -20.4934 O.3         1 DSK      -0.3864
      8 OAH        -3.4279  -22.0927  -23.1080 O.3         1 DSK      -0.3865
      9 OAI         1.7861  -15.9909  -20.5802 O.3         1 DSK      -0.3840
     10 CAJ         0.5760  -22.4992  -24.3229 C.3         1 DSK       0.0727
     11 CAK        -0.7784  -16.6395  -18.1300 C.3         1 DSK       0.0944
     12 CAL        -1.6456  -18.6672  -21.2963 C.3         1 DSK       0.1385
     13 CAM        -1.0006  -16.0964  -22.0279 C.3         1 DSK       0.1386
     14 CAN        -0.5619  -23.3695  -23.7167 C.3         1 DSK       0.1065
     15 CAO        -2.8873  -19.5636  -21.0087 C.3         1 DSK       0.1280
     16 CAP        -0.2649  -14.9221  -21.3461 C.3         1 DSK       0.1303
     17 CAQ        -1.2079  -22.8777  -22.3805 C.3         1 DSK       0.1114
     18 CAR        -2.5755  -21.0908  -21.0585 C.3         1 DSK       0.1137
     19 CAS        -2.2132  -21.6857  -22.4632 C.3         1 DSK       0.1119
     20 CAT         0.4868  -15.5518  -20.1479 C.3         1 DSK       0.1349
     21 CAU        -0.3580  -16.7582  -19.6162 C.3         1 DSK       0.1711
     22 SAV        -1.8331  -16.9681  -20.6717 S.3         1 DSK       0.0029
     23 H1         -0.7937  -21.4006  -25.1376 H           1 DSK       0.2095
     24 H2         -1.2342  -14.8737  -17.4592 H           1 DSK       0.2096
     25 H3         -1.7414  -22.7923  -25.1359 H           1 DSK       0.2100
     26 H4         -3.7441  -19.6906  -22.7435 H           1 DSK       0.2101
     27 H5         -1.2768  -13.3047  -21.6554 H           1 DSK       0.2101
     28 H6          0.1888  -21.6882  -21.8026 H           1 DSK       0.2100
     29 H7         -4.4454  -21.6040  -21.0749 H           1 DSK       0.2100
     30 H8         -3.4609  -21.5873  -23.9505 H           1 DSK       0.2100
     31 H9          1.6282  -16.5750  -21.3525 H           1 DSK       0.2101
     32 H10         1.3264  -22.2735  -23.5646 H           1 DSK       0.0584
     33 H11         1.0687  -23.0864  -25.0982 H           1 DSK       0.0584
     34 H12        -1.2242  -17.5857  -17.8077 H           1 DSK       0.0608
     35 H13         0.1056  -16.4571  -17.5115 H           1 DSK       0.0608
     36 H14        -1.4917  -18.6234  -22.3785 H           1 DSK       0.0867
     37 H15        -0.7525  -19.1338  -20.8638 H           1 DSK       0.0867
     38 H16        -0.2759  -16.7316  -22.5483 H           1 DSK       0.0867
     39 H17        -1.7302  -15.7339  -22.7526 H           1 DSK       0.0867
     40 H18        -0.1074  -24.3426  -23.4860 H           1 DSK       0.0643
     41 H19        -3.2499  -19.3456  -19.9992 H           1 DSK       0.0667
     42 H20         0.4367  -14.4491  -22.0487 H           1 DSK       0.0668
     43 H21        -1.7456  -23.7274  -21.9444 H           1 DSK       0.0647
     44 H22        -1.7403  -21.2512  -20.3586 H           1 DSK       0.0647
     45 H23        -1.7549  -20.9028  -23.0649 H           1 DSK       0.0647
     46 H24         0.6435  -14.7930  -19.3745 H           1 DSK       0.0672
     47 H25         0.2617  -17.6514  -19.6708 H           1 DSK       0.0928
@<TRIPOS>BOND
     1    10     1   1
     2    11     2   1
     3    14     3   1
     4    15     4   1
     5    16     5   1
     6    17     6   1
     7    18     7   1
     8    19     8   1
     9    20     9   1
    10    14    10   1
    11    21    11   1
    12    12    15   1
    13    22    12   1
    14    16    13   1
    15    13    22   1
    16    17    14   1
    17    15    18   1
    18    20    16   1
    19    19    17   1
    20    18    19   1
    21    20    21   1
    22    21    22   1
    23     1    23   1
    24     2    24   1
    25     3    25   1
    26     4    26   1
    27     5    27   1
    28     6    28   1
    29     7    29   1
    30     8    30   1
    31     9    31   1
    32    10    32   1
    33    10    33   1
    34    11    34   1
    35    11    35   1
    36    12    36   1
    37    12    37   1
    38    13    38   1
    39    13    39   1
    40    14    40   1
    41    15    41   1
    42    16    42   1
    43    17    43   1
    44    18    44   1
    45    19    45   1
    46    20    46   1
    47    21    47   1
@<TRIPOS>SUBSTRUCTURE
     1  DSK     10

