@<TRIPOS>MOLECULE
3l4u_ligand_083
    47    47
SMALL
GAST_HUCK
****
This file was generated by PARSER (from files_GN.cpp)

@<TRIPOS>ATOM
      1 OAA         0.0510  -15.4783  -23.3362 O.3         1 DSK      -0.3924
      2 OAB        -6.5901  -22.7242  -20.8205 O.3         1 DSK      -0.3900
      3 OAC         1.4044  -16.2808  -20.3879 O.3         1 DSK      -0.3869
      4 OAD        -1.1163  -18.7388  -18.5303 O.3         1 DSK      -0.3845
      5 OAE        -2.4647  -24.3919  -18.9805 O.3         1 DSK      -0.3844
      6 OAF        -0.7563  -17.7183  -20.9494 O.3         1 DSK      -0.3865
      7 OAG        -3.6127  -16.6299  -17.9695 O.3         1 DSK      -0.3864
      8 OAH        -2.4645  -14.7801  -19.6353 O.3         1 DSK      -0.3865
      9 OAI        -3.9758  -23.8471  -22.1375 O.3         1 DSK      -0.3840
     10 CAJ         0.6427  -14.8318  -22.2042 C.3         1 DSK       0.0727
     11 CAK        -5.7515  -21.7142  -20.2569 C.3         1 DSK       0.0944
     12 CAL        -2.8606  -19.6216  -19.9786 C.3         1 DSK       0.1385
     13 CAM        -1.8249  -22.2739  -20.0015 C.3         1 DSK       0.1386
     14 CAN         0.3020  -15.4835  -20.8337 C.3         1 DSK       0.1065
     15 CAO        -2.5075  -18.6113  -18.8493 C.3         1 DSK       0.1280
     16 CAP        -2.4393  -23.6710  -20.2166 C.3         1 DSK       0.1303
     17 CAQ        -1.0285  -16.3189  -20.8022 C.3         1 DSK       0.1114
     18 CAR        -2.9344  -17.1210  -19.1353 C.3         1 DSK       0.1137
     19 CAS        -1.8311  -16.0684  -19.4926 C.3         1 DSK       0.1119
     20 CAT        -3.8828  -23.4665  -20.7609 C.3         1 DSK       0.1349
     21 CAU        -4.2608  -21.9621  -20.6090 C.3         1 DSK       0.1711
     22 SAV        -3.1821  -21.2941  -19.3096 S.3         1 DSK       0.0029
     23 H1         -0.6957  -14.8969  -23.5986 H           1 DSK       0.2095
     24 H2         -6.4893  -22.6241  -21.7897 H           1 DSK       0.2096
     25 H3          1.6950  -16.7886  -21.1736 H           1 DSK       0.2100
     26 H4         -0.9345  -18.0201  -17.8865 H           1 DSK       0.2101
     27 H5         -2.7193  -25.3055  -19.2292 H           1 DSK       0.2101
     28 H6         -0.1046  -17.7650  -21.6911 H           1 DSK       0.2100
     29 H7         -2.9006  -16.4421  -17.3209 H           1 DSK       0.2100
     30 H8         -2.8394  -14.7638  -20.5469 H           1 DSK       0.2100
     31 H9         -3.8188  -24.8138  -22.1502 H           1 DSK       0.2101
     32 H10         0.3088  -13.7835  -22.2048 H           1 DSK       0.0584
     33 H11         1.7313  -14.8234  -22.3408 H           1 DSK       0.0584
     34 H12        -5.8920  -21.7174  -19.1709 H           1 DSK       0.0608
     35 H13        -6.0689  -20.7437  -20.6459 H           1 DSK       0.0608
     36 H14        -2.0816  -19.6358  -20.7467 H           1 DSK       0.0867
     37 H15        -3.7895  -19.2945  -20.4607 H           1 DSK       0.0867
     38 H16        -1.4741  -21.8791  -20.9623 H           1 DSK       0.0867
     39 H17        -0.9882  -22.3084  -19.2979 H           1 DSK       0.0867
     40 H18         0.2439  -14.6530  -20.1169 H           1 DSK       0.0643
     41 H19        -3.0609  -18.9479  -17.9635 H           1 DSK       0.0667
     42 H20        -1.8241  -24.2425  -20.9195 H           1 DSK       0.0668
     43 H21        -1.6725  -16.0281  -21.6354 H           1 DSK       0.0647
     44 H22        -3.6743  -17.0960  -19.9431 H           1 DSK       0.0647
     45 H23        -1.1455  -15.9956  -18.6389 H           1 DSK       0.0647
     46 H24        -4.5820  -24.0925  -20.1983 H           1 DSK       0.0672
     47 H25        -4.0483  -21.4525  -21.5588 H           1 DSK       0.0928
@<TRIPOS>BOND
     1    10     1   1
     2    11     2   1
     3    14     3   1
     4    15     4   1
     5    16     5   1
     6    17     6   1
     7    18     7   1
     8    19     8   1
     9    20     9   1
    10    14    10   1
    11    21    11   1
    12    12    15   1
    13    22    12   1
    14    16    13   1
    15    13    22   1
    16    17    14   1
    17    15    18   1
    18    20    16   1
    19    19    17   1
    20    18    19   1
    21    20    21   1
    22    21    22   1
    23     1    23   1
    24     2    24   1
    25     3    25   1
    26     4    26   1
    27     5    27   1
    28     6    28   1
    29     7    29   1
    30     8    30   1
    31     9    31   1
    32    10    32   1
    33    10    33   1
    34    11    34   1
    35    11    35   1
    36    12    36   1
    37    12    37   1
    38    13    38   1
    39    13    39   1
    40    14    40   1
    41    15    41   1
    42    16    42   1
    43    17    43   1
    44    18    44   1
    45    19    45   1
    46    20    46   1
    47    21    47   1
@<TRIPOS>SUBSTRUCTURE
     1  DSK     10

