@<TRIPOS>MOLECULE
3l4u_ligand_056
    47    47
SMALL
GAST_HUCK
****
This file was generated by PARSER (from files_GN.cpp)

@<TRIPOS>ATOM
      1 OAA        -7.1571  -23.8193  -24.3069 O.3         1 DSK      -0.3924
      2 OAB        -0.1991  -16.0942  -22.6943 O.3         1 DSK      -0.3900
      3 OAC        -5.7442  -20.7392  -22.9542 O.3         1 DSK      -0.3869
      4 OAD        -2.4327  -20.5894  -18.8541 O.3         1 DSK      -0.3845
      5 OAE        -0.4295  -15.7251  -18.0279 O.3         1 DSK      -0.3844
      6 OAF        -3.9310  -23.1965  -24.3040 O.3         1 DSK      -0.3865
      7 OAG        -4.7330  -21.0381  -20.5653 O.3         1 DSK      -0.3864
      8 OAH        -2.9740  -20.8101  -23.1447 O.3         1 DSK      -0.3865
      9 OAI        -3.7673  -15.9756  -19.5543 O.3         1 DSK      -0.3840
     10 CAJ        -6.6079  -22.4941  -24.3553 C.3         1 DSK       0.0727
     11 CAK        -0.5037  -15.6443  -21.3761 C.3         1 DSK       0.0944
     12 CAL        -2.3995  -19.1330  -20.8167 C.3         1 DSK       0.1385
     13 CAM        -1.6160  -17.7936  -18.4735 C.3         1 DSK       0.1386
     14 CAN        -5.7967  -22.1681  -23.0579 C.3         1 DSK       0.1065
     15 CAO        -2.3352  -20.5956  -20.2786 C.3         1 DSK       0.1280
     16 CAP        -1.7232  -16.2774  -18.2653 C.3         1 DSK       0.1303
     17 CAQ        -4.3709  -22.8198  -22.9906 C.3         1 DSK       0.1114
     18 CAR        -3.4334  -21.5631  -20.8376 C.3         1 DSK       0.1137
     19 CAS        -3.2359  -21.9556  -22.3385 C.3         1 DSK       0.1119
     20 CAT        -2.3560  -15.7190  -19.5589 C.3         1 DSK       0.1349
     21 CAU        -1.6825  -16.4448  -20.7616 C.3         1 DSK       0.1711
     22 SAV        -1.0714  -18.0627  -20.1799 S.3         1 DSK       0.0029
     23 H1         -7.8700  -23.7549  -23.6356 H           1 DSK       0.2095
     24 H2          0.6380  -16.6055  -22.6202 H           1 DSK       0.2096
     25 H3         -5.1403  -20.4755  -23.6729 H           1 DSK       0.2100
     26 H4         -3.3716  -20.3637  -18.6632 H           1 DSK       0.2101
     27 H5         -0.5888  -14.8612  -17.5940 H           1 DSK       0.2101
     28 H6         -3.1729  -23.8042  -24.1514 H           1 DSK       0.2100
     29 H7         -4.8723  -20.3241  -21.2211 H           1 DSK       0.2100
     30 H8         -2.6321  -21.1657  -23.9954 H           1 DSK       0.2100
     31 H9         -4.1336  -15.4257  -18.8257 H           1 DSK       0.2101
     32 H10        -7.4278  -21.7752  -24.4724 H           1 DSK       0.0584
     33 H11        -5.9579  -22.4086  -25.2352 H           1 DSK       0.0584
     34 H12        -0.7657  -14.5890  -21.4476 H           1 DSK       0.0608
     35 H13         0.3934  -15.7256  -20.7591 H           1 DSK       0.0608
     36 H14        -3.3755  -18.6918  -20.5956 H           1 DSK       0.0867
     37 H15        -2.2793  -19.1435  -21.8978 H           1 DSK       0.0867
     38 H16        -2.5860  -18.2604  -18.2771 H           1 DSK       0.0867
     39 H17        -0.8802  -18.2362  -17.8012 H           1 DSK       0.0867
     40 H18        -6.3932  -22.5212  -22.2082 H           1 DSK       0.0643
     41 H19        -1.3485  -21.0067  -20.5200 H           1 DSK       0.0667
     42 H20        -2.3511  -16.0586  -17.3908 H           1 DSK       0.0668
     43 H21        -4.4694  -23.7477  -22.4128 H           1 DSK       0.0647
     44 H22        -3.3666  -22.4982  -20.2743 H           1 DSK       0.0647
     45 H23        -2.3243  -22.5644  -22.3776 H           1 DSK       0.0647
     46 H24        -2.2300  -14.6353  -19.6105 H           1 DSK       0.0672
     47 H25        -2.4211  -16.5716  -21.5587 H           1 DSK       0.0928
@<TRIPOS>BOND
     1    10     1   1
     2    11     2   1
     3    14     3   1
     4    15     4   1
     5    16     5   1
     6    17     6   1
     7    18     7   1
     8    19     8   1
     9    20     9   1
    10    14    10   1
    11    21    11   1
    12    12    15   1
    13    22    12   1
    14    16    13   1
    15    13    22   1
    16    17    14   1
    17    15    18   1
    18    20    16   1
    19    19    17   1
    20    18    19   1
    21    20    21   1
    22    21    22   1
    23     1    23   1
    24     2    24   1
    25     3    25   1
    26     4    26   1
    27     5    27   1
    28     6    28   1
    29     7    29   1
    30     8    30   1
    31     9    31   1
    32    10    32   1
    33    10    33   1
    34    11    34   1
    35    11    35   1
    36    12    36   1
    37    12    37   1
    38    13    38   1
    39    13    39   1
    40    14    40   1
    41    15    41   1
    42    16    42   1
    43    17    43   1
    44    18    44   1
    45    19    45   1
    46    20    46   1
    47    21    47   1
@<TRIPOS>SUBSTRUCTURE
     1  DSK     10

