@<TRIPOS>MOLECULE
3l4u_ligand_044
    47    47
SMALL
GAST_HUCK
****
This file was generated by PARSER (from files_GN.cpp)

@<TRIPOS>ATOM
      1 OAA         2.5607  -23.2784  -22.2756 O.3         1 DSK      -0.3924
      2 OAB        -3.4183  -15.0495  -18.4125 O.3         1 DSK      -0.3900
      3 OAC         2.0167  -24.6779  -19.7690 O.3         1 DSK      -0.3869
      4 OAD        -2.6187  -19.7052  -18.3388 O.3         1 DSK      -0.3845
      5 OAE         1.0772  -15.0785  -20.7099 O.3         1 DSK      -0.3844
      6 OAF        -0.7217  -24.2505  -19.8332 O.3         1 DSK      -0.3865
      7 OAG        -2.5319  -22.1462  -19.2289 O.3         1 DSK      -0.3864
      8 OAH        -1.4154  -21.8659  -21.7853 O.3         1 DSK      -0.3865
      9 OAI         0.3579  -15.5968  -17.8457 O.3         1 DSK      -0.3840
     10 CAJ         2.5852  -22.6722  -20.9850 C.3         1 DSK       0.0727
     11 CAK        -2.8405  -16.2458  -17.9001 C.3         1 DSK       0.0944
     12 CAL        -1.6025  -19.0879  -20.4803 C.3         1 DSK       0.1385
     13 CAM        -0.8837  -16.4761  -21.2433 C.3         1 DSK       0.1386
     14 CAN         1.5626  -23.3480  -20.0305 C.3         1 DSK       0.1065
     15 CAO        -1.4847  -19.9230  -19.1818 C.3         1 DSK       0.1280
     16 CAP         0.2210  -16.1145  -20.2283 C.3         1 DSK       0.1303
     17 CAQ         0.1018  -23.3595  -20.5909 C.3         1 DSK       0.1114
     18 CAR        -1.2755  -21.4634  -19.3520 C.3         1 DSK       0.1137
     19 CAS        -0.5357  -21.9308  -20.6570 C.3         1 DSK       0.1119
     20 CAT        -0.5330  -15.6811  -18.9551 C.3         1 DSK       0.1349
     21 CAU        -1.6281  -16.7484  -18.7261 C.3         1 DSK       0.1711
     22 SAV        -2.1929  -17.3529  -20.3505 S.3         1 DSK       0.0029
     23 H1          3.3284  -22.8992  -22.7531 H           1 DSK       0.2095
     24 H2         -2.8923  -14.3183  -18.0241 H           1 DSK       0.2096
     25 H3          2.8052  -24.5758  -19.1906 H           1 DSK       0.2100
     26 H4         -2.3958  -20.1333  -17.4883 H           1 DSK       0.2101
     27 H5          1.6444  -14.8471  -19.9402 H           1 DSK       0.2101
     28 H6         -1.5596  -24.3215  -20.3385 H           1 DSK       0.2100
     29 H7         -3.0844  -21.8392  -19.9781 H           1 DSK       0.2100
     30 H8         -1.0576  -21.1362  -22.3342 H           1 DSK       0.2100
     31 H9          0.0978  -14.7815  -17.3629 H           1 DSK       0.2101
     32 H10         2.3768  -21.6069  -21.0985 H           1 DSK       0.0584
     33 H11         3.5938  -22.7743  -20.5766 H           1 DSK       0.0584
     34 H12        -3.6169  -17.0134  -17.9028 H           1 DSK       0.0608
     35 H13        -2.5426  -16.0702  -16.8683 H           1 DSK       0.0608
     36 H14        -2.3108  -19.5884  -21.1511 H           1 DSK       0.0867
     37 H15        -0.6291  -19.0988  -20.9708 H           1 DSK       0.0867
     38 H16        -0.4826  -17.0610  -22.0796 H           1 DSK       0.0867
     39 H17        -1.3054  -15.5537  -21.6478 H           1 DSK       0.0867
     40 H18         1.5708  -22.8139  -19.0737 H           1 DSK       0.0643
     41 H19        -0.6048  -19.5423  -18.6421 H           1 DSK       0.0667
     42 H20         0.8273  -17.0001  -20.0162 H           1 DSK       0.0668
     43 H21         0.1342  -23.7854  -21.5999 H           1 DSK       0.0647
     44 H22        -0.6893  -21.7867  -18.4914 H           1 DSK       0.0647
     45 H23         0.2656  -21.2246  -20.8696 H           1 DSK       0.0647
     46 H24        -0.9730  -14.6933  -19.1336 H           1 DSK       0.0672
     47 H25        -1.1723  -17.5620  -18.1667 H           1 DSK       0.0928
@<TRIPOS>BOND
     1    10     1   1
     2    11     2   1
     3    14     3   1
     4    15     4   1
     5    16     5   1
     6    17     6   1
     7    18     7   1
     8    19     8   1
     9    20     9   1
    10    14    10   1
    11    21    11   1
    12    12    15   1
    13    22    12   1
    14    16    13   1
    15    13    22   1
    16    17    14   1
    17    15    18   1
    18    20    16   1
    19    19    17   1
    20    18    19   1
    21    20    21   1
    22    21    22   1
    23     1    23   1
    24     2    24   1
    25     3    25   1
    26     4    26   1
    27     5    27   1
    28     6    28   1
    29     7    29   1
    30     8    30   1
    31     9    31   1
    32    10    32   1
    33    10    33   1
    34    11    34   1
    35    11    35   1
    36    12    36   1
    37    12    37   1
    38    13    38   1
    39    13    39   1
    40    14    40   1
    41    15    41   1
    42    16    42   1
    43    17    43   1
    44    18    44   1
    45    19    45   1
    46    20    46   1
    47    21    47   1
@<TRIPOS>SUBSTRUCTURE
     1  DSK     10

