@<TRIPOS>MOLECULE
3l4u_ligand_063
    47    47
SMALL
GAST_HUCK
****
This file was generated by PARSER (from files_GN.cpp)

@<TRIPOS>ATOM
      1 OAA        -4.5630  -14.2489  -18.1650 O.3         1 DSK      -0.3924
      2 OAB        -3.3888  -21.1385  -15.3827 O.3         1 DSK      -0.3900
      3 OAC        -4.0626  -15.9622  -20.3719 O.3         1 DSK      -0.3869
      4 OAD        -1.7921  -21.2390  -21.8511 O.3         1 DSK      -0.3845
      5 OAE         0.4823  -23.2710  -16.5128 O.3         1 DSK      -0.3844
      6 OAF        -2.9944  -18.2067  -18.5891 O.3         1 DSK      -0.3865
      7 OAG        -3.5778  -18.8468  -21.4128 O.3         1 DSK      -0.3864
      8 OAH        -0.1888  -17.7453  -20.3722 O.3         1 DSK      -0.3865
      9 OAI        -2.2158  -24.3763  -18.7445 O.3         1 DSK      -0.3840
     10 CAJ        -3.8666  -15.4837  -18.0131 C.3         1 DSK       0.0727
     11 CAK        -2.5181  -22.2289  -15.6750 C.3         1 DSK       0.0944
     12 CAL        -2.5000  -20.9841  -19.5732 C.3         1 DSK       0.1385
     13 CAM        -0.1722  -22.1437  -18.5701 C.3         1 DSK       0.1386
     14 CAN        -3.1071  -15.8544  -19.3139 C.3         1 DSK       0.1065
     15 CAO        -1.7130  -20.3179  -20.7551 C.3         1 DSK       0.1280
     16 CAP        -0.1917  -23.4482  -17.7585 C.3         1 DSK       0.1303
     17 CAQ        -2.2480  -17.1566  -19.1953 C.3         1 DSK       0.1114
     18 CAR        -2.1592  -18.9015  -21.2694 C.3         1 DSK       0.1137
     19 CAS        -1.6017  -17.6218  -20.5478 C.3         1 DSK       0.1119
     20 CAT        -1.6778  -23.7999  -17.5515 C.3         1 DSK       0.1349
     21 CAU        -2.4258  -22.4797  -17.2052 C.3         1 DSK       0.1711
     22 SAV        -1.5495  -21.0989  -18.0164 S.3         1 DSK       0.0029
     23 H1         -3.8897  -13.5565  -17.9909 H           1 DSK       0.2095
     24 H2         -3.4185  -21.1018  -14.4042 H           1 DSK       0.2096
     25 H3         -3.7045  -15.4189  -21.1076 H           1 DSK       0.2100
     26 H4         -1.0487  -21.0061  -22.4413 H           1 DSK       0.2101
     27 H5          0.4748  -24.1544  -16.0888 H           1 DSK       0.2101
     28 H6         -3.1411  -17.9192  -17.6631 H           1 DSK       0.2100
     29 H7         -3.7606  -18.0198  -21.9105 H           1 DSK       0.2100
     30 H8          0.1949  -17.7634  -21.2754 H           1 DSK       0.2100
     31 H9         -1.8082  -25.2660  -18.8137 H           1 DSK       0.2101
     32 H10        -4.6007  -16.2568  -17.7771 H           1 DSK       0.0584
     33 H11        -3.1688  -15.3996  -17.1757 H           1 DSK       0.0584
     34 H12        -2.9214  -23.1151  -15.1781 H           1 DSK       0.0608
     35 H13        -1.5351  -22.0182  -15.2485 H           1 DSK       0.0608
     36 H14        -2.8115  -21.9977  -19.8581 H           1 DSK       0.0867
     37 H15        -3.4232  -20.4408  -19.3753 H           1 DSK       0.0867
     38 H16        -0.2589  -22.3856  -19.6315 H           1 DSK       0.0867
     39 H17         0.7649  -21.6036  -18.4246 H           1 DSK       0.0867
     40 H18        -2.4335  -15.0207  -19.5508 H           1 DSK       0.0643
     41 H19        -0.6489  -20.2690  -20.5033 H           1 DSK       0.0667
     42 H20         0.3209  -24.2436  -18.3065 H           1 DSK       0.0668
     43 H21        -1.4413  -16.9207  -18.4902 H           1 DSK       0.0647
     44 H22        -1.7655  -18.8267  -22.2863 H           1 DSK       0.0647
     45 H23        -1.7153  -16.7985  -21.2621 H           1 DSK       0.0647
     46 H24        -1.7818  -24.5479  -16.7606 H           1 DSK       0.0672
     47 H25        -3.4552  -22.5429  -17.5706 H           1 DSK       0.0928
@<TRIPOS>BOND
     1    10     1   1
     2    11     2   1
     3    14     3   1
     4    15     4   1
     5    16     5   1
     6    17     6   1
     7    18     7   1
     8    19     8   1
     9    20     9   1
    10    14    10   1
    11    21    11   1
    12    12    15   1
    13    22    12   1
    14    16    13   1
    15    13    22   1
    16    17    14   1
    17    15    18   1
    18    20    16   1
    19    19    17   1
    20    18    19   1
    21    20    21   1
    22    21    22   1
    23     1    23   1
    24     2    24   1
    25     3    25   1
    26     4    26   1
    27     5    27   1
    28     6    28   1
    29     7    29   1
    30     8    30   1
    31     9    31   1
    32    10    32   1
    33    10    33   1
    34    11    34   1
    35    11    35   1
    36    12    36   1
    37    12    37   1
    38    13    38   1
    39    13    39   1
    40    14    40   1
    41    15    41   1
    42    16    42   1
    43    17    43   1
    44    18    44   1
    45    19    45   1
    46    20    46   1
    47    21    47   1
@<TRIPOS>SUBSTRUCTURE
     1  DSK     10

