@<TRIPOS>MOLECULE
3l4u_ligand_071
    47    47
SMALL
GAST_HUCK
****
This file was generated by PARSER (from files_GN.cpp)

@<TRIPOS>ATOM
      1 OAA         2.2675  -15.4529  -21.9997 O.3         1 DSK      -0.3924
      2 OAB        -0.6992  -24.4120  -20.8151 O.3         1 DSK      -0.3900
      3 OAC        -0.6169  -15.8650  -22.8214 O.3         1 DSK      -0.3869
      4 OAD        -1.7649  -18.7392  -21.1312 O.3         1 DSK      -0.3845
      5 OAE        -4.8099  -22.8380  -19.5859 O.3         1 DSK      -0.3844
      6 OAF        -2.4745  -16.2915  -20.8385 O.3         1 DSK      -0.3865
      7 OAG        -0.5192  -18.4588  -17.6907 O.3         1 DSK      -0.3864
      8 OAH        -1.5472  -15.8088  -17.9749 O.3         1 DSK      -0.3865
      9 OAI        -2.3786  -22.1280  -16.9247 O.3         1 DSK      -0.3840
     10 CAJ         1.0962  -14.9705  -21.3298 C.3         1 DSK       0.0727
     11 CAK        -1.7991  -24.2918  -19.9147 C.3         1 DSK       0.0944
     12 CAL        -0.6120  -20.4775  -19.8201 C.3         1 DSK       0.1385
     13 CAM        -3.3738  -20.8614  -19.4592 C.3         1 DSK       0.1386
     14 CAN        -0.0835  -15.9698  -21.4949 C.3         1 DSK       0.1065
     15 CAO        -0.8085  -18.9476  -20.0851 C.3         1 DSK       0.1280
     16 CAP        -4.0449  -22.0164  -18.7006 C.3         1 DSK       0.1303
     17 CAQ        -1.1999  -15.8107  -20.3967 C.3         1 DSK       0.1114
     18 CAR        -1.1873  -18.0232  -18.8770 C.3         1 DSK       0.1137
     19 CAS        -0.8497  -16.4980  -19.0259 C.3         1 DSK       0.1119
     20 CAT        -2.8842  -22.8140  -18.0748 C.3         1 DSK       0.1349
     21 CAU        -1.7584  -22.9435  -19.1425 C.3         1 DSK       0.1711
     22 SAV        -1.9675  -21.5809  -20.3345 S.3         1 DSK       0.0029
     23 H1          2.2379  -16.4287  -21.9114 H           1 DSK       0.2095
     24 H2          0.1011  -24.4099  -20.2482 H           1 DSK       0.2096
     25 H3         -1.3178  -15.1812  -22.7738 H           1 DSK       0.2100
     26 H4         -1.3407  -19.0625  -21.9464 H           1 DSK       0.2101
     27 H5         -5.5430  -22.2695  -19.9004 H           1 DSK       0.2101
     28 H6         -2.7799  -15.6449  -21.5095 H           1 DSK       0.2100
     29 H7         -0.9696  -19.2834  -17.4212 H           1 DSK       0.2100
     30 H8         -1.0211  -15.0046  -17.7625 H           1 DSK       0.2100
     31 H9         -3.1102  -22.1560  -16.2735 H           1 DSK       0.2101
     32 H10         0.8279  -13.9922  -21.7470 H           1 DSK       0.0584
     33 H11         1.3435  -14.8459  -20.2671 H           1 DSK       0.0584
     34 H12        -1.7451  -25.1213  -19.2052 H           1 DSK       0.0608
     35 H13        -2.7276  -24.3840  -20.4815 H           1 DSK       0.0608
     36 H14        -0.3356  -20.6521  -18.7751 H           1 DSK       0.0867
     37 H15         0.2475  -20.8086  -20.4121 H           1 DSK       0.0867
     38 H16        -3.0604  -20.1105  -18.7320 H           1 DSK       0.0867
     39 H17        -4.0511  -20.4001  -20.1780 H           1 DSK       0.0867
     40 H18         0.3304  -16.9697  -21.4327 H           1 DSK       0.0643
     41 H19         0.1597  -18.5948  -20.4512 H           1 DSK       0.0667
     42 H20        -4.7107  -21.6267  -17.9247 H           1 DSK       0.0668
     43 H21        -1.3352  -14.7310  -20.2189 H           1 DSK       0.0647
     44 H22        -2.2610  -18.0995  -18.6816 H           1 DSK       0.0647
     45 H23         0.2184  -16.3602  -18.8209 H           1 DSK       0.0647
     46 H24        -3.2303  -23.7962  -17.7378 H           1 DSK       0.0672
     47 H25        -0.7780  -22.8960  -18.6543 H           1 DSK       0.0928
@<TRIPOS>BOND
     1    10     1   1
     2    11     2   1
     3    14     3   1
     4    15     4   1
     5    16     5   1
     6    17     6   1
     7    18     7   1
     8    19     8   1
     9    20     9   1
    10    14    10   1
    11    21    11   1
    12    12    15   1
    13    22    12   1
    14    16    13   1
    15    13    22   1
    16    17    14   1
    17    15    18   1
    18    20    16   1
    19    19    17   1
    20    18    19   1
    21    20    21   1
    22    21    22   1
    23     1    23   1
    24     2    24   1
    25     3    25   1
    26     4    26   1
    27     5    27   1
    28     6    28   1
    29     7    29   1
    30     8    30   1
    31     9    31   1
    32    10    32   1
    33    10    33   1
    34    11    34   1
    35    11    35   1
    36    12    36   1
    37    12    37   1
    38    13    38   1
    39    13    39   1
    40    14    40   1
    41    15    41   1
    42    16    42   1
    43    17    43   1
    44    18    44   1
    45    19    45   1
    46    20    46   1
    47    21    47   1
@<TRIPOS>SUBSTRUCTURE
     1  DSK     10

