@<TRIPOS>MOLECULE
3l4u_ligand_019
    47    47
SMALL
GAST_HUCK
****
This file was generated by PARSER (from files_GN.cpp)

@<TRIPOS>ATOM
      1 OAA        -1.5116  -15.6627  -17.4655 O.3         1 DSK      -0.3924
      2 OAB        -6.8582  -21.8986  -24.0529 O.3         1 DSK      -0.3900
      3 OAC         0.8283  -16.4541  -20.1075 O.3         1 DSK      -0.3869
      4 OAD        -2.2507  -19.4463  -23.2179 O.3         1 DSK      -0.3845
      5 OAE        -5.5796  -24.1029  -19.9934 O.3         1 DSK      -0.3844
      6 OAF        -1.4862  -15.1052  -20.6770 O.3         1 DSK      -0.3865
      7 OAG        -1.0363  -19.4418  -20.3377 O.3         1 DSK      -0.3864
      8 OAH        -1.2314  -17.2577  -22.4002 O.3         1 DSK      -0.3865
      9 OAI        -2.7319  -23.5561  -22.1941 O.3         1 DSK      -0.3840
     10 CAJ        -0.2175  -15.9978  -17.9913 C.3         1 DSK       0.0727
     11 CAK        -6.1909  -22.9699  -23.3871 C.3         1 DSK       0.0944
     12 CAL        -4.3901  -19.8015  -22.0574 C.3         1 DSK       0.1385
     13 CAM        -4.4012  -21.9556  -20.0820 C.3         1 DSK       0.1386
     14 CAN        -0.3267  -16.7642  -19.3413 C.3         1 DSK       0.1065
     15 CAO        -2.8263  -19.8199  -21.9666 C.3         1 DSK       0.1280
     16 CAP        -4.3626  -23.4628  -20.3934 C.3         1 DSK       0.1303
     17 CAQ        -1.6284  -16.4171  -20.1191 C.3         1 DSK       0.1114
     18 CAR        -2.2652  -18.9010  -20.8299 C.3         1 DSK       0.1137
     19 CAS        -2.0799  -17.4008  -21.2538 C.3         1 DSK       0.1119
     20 CAT        -4.1365  -23.6276  -21.9183 C.3         1 DSK       0.1349
     21 CAU        -4.9040  -22.4929  -22.6602 C.3         1 DSK       0.1711
     22 SAV        -5.3478  -21.2198  -21.4350 S.3         1 DSK       0.0029
     23 H1         -1.4414  -14.6945  -17.2928 H           1 DSK       0.2095
     24 H2         -6.1490  -21.3731  -24.4832 H           1 DSK       0.2096
     25 H3          0.8197  -17.0587  -20.8791 H           1 DSK       0.2100
     26 H4         -1.3724  -19.8663  -23.2170 H           1 DSK       0.2101
     27 H5         -6.2958  -23.6190  -20.4523 H           1 DSK       0.2101
     28 H6         -2.3517  -14.8809  -21.0689 H           1 DSK       0.2100
     29 H7         -0.4931  -19.5789  -21.1413 H           1 DSK       0.2100
     30 H8         -0.4936  -17.8917  -22.2960 H           1 DSK       0.2100
     31 H9         -2.6443  -23.7759  -23.1489 H           1 DSK       0.2101
     32 H10         0.2983  -16.6338  -17.2552 H           1 DSK       0.0584
     33 H11         0.3685  -15.0777  -18.1137 H           1 DSK       0.0584
     34 H12        -5.9211  -23.7149  -24.1405 H           1 DSK       0.0608
     35 H13        -6.8893  -23.4277  -22.6844 H           1 DSK       0.0608
     36 H14        -4.6666  -19.7045  -23.1107 H           1 DSK       0.0867
     37 H15        -4.7872  -18.9183  -21.5569 H           1 DSK       0.0867
     38 H16        -3.3927  -21.5581  -20.0143 H           1 DSK       0.0867
     39 H17        -4.9180  -21.7667  -19.1472 H           1 DSK       0.0867
     40 H18        -0.3368  -17.8320  -19.1095 H           1 DSK       0.0643
     41 H19        -2.4863  -20.8404  -21.7871 H           1 DSK       0.0667
     42 H20        -3.5513  -23.9453  -19.8346 H           1 DSK       0.0668
     43 H21        -2.4711  -16.3707  -19.4058 H           1 DSK       0.0647
     44 H22        -2.9512  -18.9328  -19.9760 H           1 DSK       0.0647
     45 H23        -3.0607  -17.0370  -21.5789 H           1 DSK       0.0647
     46 H24        -4.4739  -24.6207  -22.2406 H           1 DSK       0.0672
     47 H25        -4.2595  -22.0664  -23.4315 H           1 DSK       0.0928
@<TRIPOS>BOND
     1    10     1   1
     2    11     2   1
     3    14     3   1
     4    15     4   1
     5    16     5   1
     6    17     6   1
     7    18     7   1
     8    19     8   1
     9    20     9   1
    10    14    10   1
    11    21    11   1
    12    12    15   1
    13    22    12   1
    14    16    13   1
    15    13    22   1
    16    17    14   1
    17    15    18   1
    18    20    16   1
    19    19    17   1
    20    18    19   1
    21    20    21   1
    22    21    22   1
    23     1    23   1
    24     2    24   1
    25     3    25   1
    26     4    26   1
    27     5    27   1
    28     6    28   1
    29     7    29   1
    30     8    30   1
    31     9    31   1
    32    10    32   1
    33    10    33   1
    34    11    34   1
    35    11    35   1
    36    12    36   1
    37    12    37   1
    38    13    38   1
    39    13    39   1
    40    14    40   1
    41    15    41   1
    42    16    42   1
    43    17    43   1
    44    18    44   1
    45    19    45   1
    46    20    46   1
    47    21    47   1
@<TRIPOS>SUBSTRUCTURE
     1  DSK     10

