@<TRIPOS>MOLECULE
3l4u_ligand_061
    47    47
SMALL
GAST_HUCK
****
This file was generated by PARSER (from files_GN.cpp)

@<TRIPOS>ATOM
      1 OAA        -5.1301  -24.4364  -24.2840 O.3         1 DSK      -0.3924
      2 OAB        -1.1729  -15.3461  -17.1051 O.3         1 DSK      -0.3900
      3 OAC        -6.5024  -21.1217  -23.5561 O.3         1 DSK      -0.3869
      4 OAD        -2.2447  -19.2576  -22.6096 O.3         1 DSK      -0.3845
      5 OAE        -3.8033  -15.0201  -19.8640 O.3         1 DSK      -0.3844
      6 OAF        -3.5383  -22.3042  -23.3757 O.3         1 DSK      -0.3865
      7 OAG        -3.2516  -20.8288  -19.4240 O.3         1 DSK      -0.3864
      8 OAH        -5.5801  -21.0791  -20.5570 O.3         1 DSK      -0.3865
      9 OAI        -0.9245  -15.6189  -21.5107 O.3         1 DSK      -0.3840
     10 CAJ        -5.9886  -23.2986  -24.4115 C.3         1 DSK       0.0727
     11 CAK        -0.0776  -15.6977  -17.9472 C.3         1 DSK       0.0944
     12 CAL        -1.2282  -18.8871  -20.4513 C.3         1 DSK       0.1385
     13 CAM        -2.9648  -17.1218  -18.9614 C.3         1 DSK       0.1386
     14 CAN        -5.9869  -22.3934  -23.1572 C.3         1 DSK       0.1065
     15 CAO        -2.5228  -19.3178  -21.2062 C.3         1 DSK       0.1280
     16 CAP        -2.8737  -16.0797  -20.0929 C.3         1 DSK       0.1303
     17 CAQ        -4.6083  -22.2430  -22.4353 C.3         1 DSK       0.1114
     18 CAR        -3.1346  -20.7225  -20.8435 C.3         1 DSK       0.1137
     19 CAS        -4.5269  -20.9824  -21.5260 C.3         1 DSK       0.1119
     20 CAT        -1.4104  -15.5666  -20.1696 C.3         1 DSK       0.1349
     21 CAU        -0.5079  -16.4391  -19.2435 C.3         1 DSK       0.1711
     22 SAV        -1.3833  -17.9948  -18.8632 S.3         1 DSK       0.0029
     23 H1         -4.2244  -24.0729  -24.3797 H           1 DSK       0.2095
     24 H2         -1.5519  -14.5186  -17.4709 H           1 DSK       0.2096
     25 H3         -5.7850  -20.7158  -24.0832 H           1 DSK       0.2100
     26 H4         -1.4320  -19.7853  -22.7489 H           1 DSK       0.2101
     27 H5         -3.6828  -14.4334  -20.6380 H           1 DSK       0.2101
     28 H6         -3.7005  -21.5925  -24.0284 H           1 DSK       0.2100
     29 H7         -3.2589  -21.7980  -19.2360 H           1 DSK       0.2100
     30 H8         -5.3503  -21.8496  -19.9961 H           1 DSK       0.2100
     31 H9         -1.6405  -15.2357  -22.0574 H           1 DSK       0.2101
     32 H10        -7.0096  -23.6758  -24.5861 H           1 DSK       0.0584
     33 H11        -5.6869  -22.7288  -25.2995 H           1 DSK       0.0584
     34 H12         0.6030  -16.3237  -17.3677 H           1 DSK       0.0608
     35 H13         0.4583  -14.7803  -18.2089 H           1 DSK       0.0608
     36 H14        -0.6354  -18.2843  -21.1425 H           1 DSK       0.0867
     37 H15        -0.6418  -19.7813  -20.2418 H           1 DSK       0.0867
     38 H16        -3.7765  -17.8260  -19.1224 H           1 DSK       0.0867
     39 H17        -3.1367  -16.6283  -18.0054 H           1 DSK       0.0867
     40 H18        -6.7035  -22.8133  -22.4432 H           1 DSK       0.0643
     41 H19        -3.2738  -18.5556  -21.0449 H           1 DSK       0.0667
     42 H20        -3.1517  -16.5645  -21.0320 H           1 DSK       0.0668
     43 H21        -4.4700  -23.1180  -21.7985 H           1 DSK       0.0647
     44 H22        -2.4197  -21.4977  -21.1460 H           1 DSK       0.0647
     45 H23        -4.7903  -20.0993  -22.1169 H           1 DSK       0.0647
     46 H24        -1.3679  -14.5107  -19.8746 H           1 DSK       0.0672
     47 H25         0.4206  -16.6933  -19.7597 H           1 DSK       0.0928
@<TRIPOS>BOND
     1    10     1   1
     2    11     2   1
     3    14     3   1
     4    15     4   1
     5    16     5   1
     6    17     6   1
     7    18     7   1
     8    19     8   1
     9    20     9   1
    10    14    10   1
    11    21    11   1
    12    12    15   1
    13    22    12   1
    14    16    13   1
    15    13    22   1
    16    17    14   1
    17    15    18   1
    18    20    16   1
    19    19    17   1
    20    18    19   1
    21    20    21   1
    22    21    22   1
    23     1    23   1
    24     2    24   1
    25     3    25   1
    26     4    26   1
    27     5    27   1
    28     6    28   1
    29     7    29   1
    30     8    30   1
    31     9    31   1
    32    10    32   1
    33    10    33   1
    34    11    34   1
    35    11    35   1
    36    12    36   1
    37    12    37   1
    38    13    38   1
    39    13    39   1
    40    14    40   1
    41    15    41   1
    42    16    42   1
    43    17    43   1
    44    18    44   1
    45    19    45   1
    46    20    46   1
    47    21    47   1
@<TRIPOS>SUBSTRUCTURE
     1  DSK     10

