@<TRIPOS>MOLECULE
3l4u_ligand_017
    47    47
SMALL
GAST_HUCK
****
This file was generated by PARSER (from files_GN.cpp)

@<TRIPOS>ATOM
      1 OAA         0.4100  -15.7098  -23.1959 O.3         1 DSK      -0.3924
      2 OAB        -0.8715  -23.7255  -16.6343 O.3         1 DSK      -0.3900
      3 OAC        -0.6222  -17.1013  -21.2053 O.3         1 DSK      -0.3869
      4 OAD        -0.7368  -18.7528  -19.9173 O.3         1 DSK      -0.3845
      5 OAE        -4.9913  -23.3534  -17.4502 O.3         1 DSK      -0.3844
      6 OAF         0.2498  -14.1059  -19.3177 O.3         1 DSK      -0.3865
      7 OAG        -3.4223  -16.9884  -18.2009 O.3         1 DSK      -0.3864
      8 OAH        -2.2297  -14.6319  -18.7907 O.3         1 DSK      -0.3865
      9 OAI        -4.0385  -21.1149  -15.3200 O.3         1 DSK      -0.3840
     10 CAJ         0.3740  -15.0379  -21.9358 C.3         1 DSK       0.0727
     11 CAK        -0.7815  -22.4347  -16.0311 C.3         1 DSK       0.0944
     12 CAL        -2.5387  -19.5879  -18.4935 C.3         1 DSK       0.1385
     13 CAM        -3.1474  -22.2961  -18.6573 C.3         1 DSK       0.1386
     14 CAN         0.2869  -16.0750  -20.7735 C.3         1 DSK       0.1065
     15 CAO        -1.5157  -18.4415  -18.7564 C.3         1 DSK       0.1280
     16 CAP        -4.1513  -22.1965  -17.4968 C.3         1 DSK       0.1303
     17 CAQ        -0.0107  -15.5181  -19.3340 C.3         1 DSK       0.1114
     18 CAR        -2.2208  -17.0580  -18.9757 C.3         1 DSK       0.1137
     19 CAS        -1.3869  -15.7736  -18.6292 C.3         1 DSK       0.1119
     20 CAT        -3.3461  -22.0181  -16.1849 C.3         1 DSK       0.1349
     21 CAU        -1.9143  -21.4853  -16.5147 C.3         1 DSK       0.1711
     22 SAV        -1.7441  -21.2185  -18.3035 S.3         1 DSK       0.0029
     23 H1          1.0690  -16.4266  -23.0641 H           1 DSK       0.2095
     24 H2         -0.1043  -24.2254  -16.2815 H           1 DSK       0.2096
     25 H3         -0.0503  -17.7068  -21.7369 H           1 DSK       0.2100
     26 H4         -0.3009  -19.6169  -19.7157 H           1 DSK       0.2101
     27 H5         -5.5024  -23.3382  -18.2875 H           1 DSK       0.2101
     28 H6          0.1216  -13.8197  -18.3907 H           1 DSK       0.2100
     29 H7         -3.1315  -16.7684  -17.2923 H           1 DSK       0.2100
     30 H8         -1.9745  -14.0117  -18.0687 H           1 DSK       0.2100
     31 H9         -3.7197  -21.3192  -14.4151 H           1 DSK       0.2101
     32 H10        -0.4952  -14.3688  -21.9090 H           1 DSK       0.0584
     33 H11         1.2837  -14.4367  -21.8391 H           1 DSK       0.0584
     34 H12         0.1950  -22.0002  -16.2703 H           1 DSK       0.0608
     35 H13        -0.8431  -22.5517  -14.9420 H           1 DSK       0.0608
     36 H14        -3.2133  -19.6422  -19.3522 H           1 DSK       0.0867
     37 H15        -3.1223  -19.3418  -17.6016 H           1 DSK       0.0867
     38 H16        -3.6128  -22.0286  -19.6087 H           1 DSK       0.0867
     39 H17        -2.7697  -23.3202  -18.7384 H           1 DSK       0.0867
     40 H18         1.2892  -16.5460  -20.7053 H           1 DSK       0.0643
     41 H19        -0.8223  -18.3645  -17.9110 H           1 DSK       0.0667
     42 H20        -4.8001  -21.3309  -17.6640 H           1 DSK       0.0668
     43 H21         0.7402  -15.9557  -18.6672 H           1 DSK       0.0647
     44 H22        -2.5445  -16.9962  -20.0207 H           1 DSK       0.0647
     45 H23        -1.1748  -15.8374  -17.5537 H           1 DSK       0.0647
     46 H24        -3.2947  -22.9821  -15.6668 H           1 DSK       0.0672
     47 H25        -1.7484  -20.5294  -16.0105 H           1 DSK       0.0928
@<TRIPOS>BOND
     1    10     1   1
     2    11     2   1
     3    14     3   1
     4    15     4   1
     5    16     5   1
     6    17     6   1
     7    18     7   1
     8    19     8   1
     9    20     9   1
    10    14    10   1
    11    21    11   1
    12    12    15   1
    13    22    12   1
    14    16    13   1
    15    13    22   1
    16    17    14   1
    17    15    18   1
    18    20    16   1
    19    19    17   1
    20    18    19   1
    21    20    21   1
    22    21    22   1
    23     1    23   1
    24     2    24   1
    25     3    25   1
    26     4    26   1
    27     5    27   1
    28     6    28   1
    29     7    29   1
    30     8    30   1
    31     9    31   1
    32    10    32   1
    33    10    33   1
    34    11    34   1
    35    11    35   1
    36    12    36   1
    37    12    37   1
    38    13    38   1
    39    13    39   1
    40    14    40   1
    41    15    41   1
    42    16    42   1
    43    17    43   1
    44    18    44   1
    45    19    45   1
    46    20    46   1
    47    21    47   1
@<TRIPOS>SUBSTRUCTURE
     1  DSK     10

