@<TRIPOS>MOLECULE
3l4u_ligand_037
    47    47
SMALL
GAST_HUCK
****
This file was generated by PARSER (from files_GN.cpp)

@<TRIPOS>ATOM
      1 OAA         2.6277  -15.5986  -22.1118 O.3         1 DSK      -0.3924
      2 OAB        -0.7734  -23.0665  -21.2983 O.3         1 DSK      -0.3900
      3 OAC        -0.0101  -15.8728  -21.8107 O.3         1 DSK      -0.3869
      4 OAD        -3.1973  -17.8014  -18.0417 O.3         1 DSK      -0.3845
      5 OAE        -1.3764  -23.0278  -16.0843 O.3         1 DSK      -0.3844
      6 OAF         0.1533  -13.8975  -19.3820 O.3         1 DSK      -0.3865
      7 OAG        -3.4742  -16.5235  -20.6518 O.3         1 DSK      -0.3864
      8 OAH        -2.3209  -14.3994  -19.6954 O.3         1 DSK      -0.3865
      9 OAI         0.8745  -23.5167  -18.7111 O.3         1 DSK      -0.3840
     10 CAJ         2.1323  -15.3299  -20.8046 C.3         1 DSK       0.0727
     11 CAK        -1.4759  -22.0866  -20.5398 C.3         1 DSK       0.0944
     12 CAL        -1.1749  -18.9421  -18.8136 C.3         1 DSK       0.1385
     13 CAM        -0.4979  -20.8936  -16.8735 C.3         1 DSK       0.1386
     14 CAN         0.7292  -15.9450  -20.5837 C.3         1 DSK       0.1065
     15 CAO        -2.4495  -18.1444  -19.2148 C.3         1 DSK       0.1280
     16 CAP        -0.3353  -22.4245  -16.8571 C.3         1 DSK       0.1303
     17 CAQ        -0.0667  -15.3230  -19.3865 C.3         1 DSK       0.1114
     18 CAR        -2.2078  -16.8630  -20.0710 C.3         1 DSK       0.1137
     19 CAS        -1.6217  -15.6027  -19.3139 C.3         1 DSK       0.1119
     20 CAT        -0.3677  -22.9270  -18.3271 C.3         1 DSK       0.1349
     21 CAU        -0.7004  -21.7186  -19.2461 C.3         1 DSK       0.1711
     22 SAV        -1.6734  -20.5903  -18.2057 S.3         1 DSK       0.0029
     23 H1          2.5726  -16.5682  -22.2157 H           1 DSK       0.2095
     24 H2         -0.8921  -23.9085  -20.8118 H           1 DSK       0.2096
     25 H3          0.3392  -16.6423  -22.3196 H           1 DSK       0.2100
     26 H4         -3.4244  -18.6626  -17.6492 H           1 DSK       0.2101
     27 H5         -2.2164  -22.7898  -16.5343 H           1 DSK       0.2101
     28 H6         -0.0918  -13.6097  -18.4764 H           1 DSK       0.2100
     29 H7         -3.3077  -15.8136  -21.3075 H           1 DSK       0.2100
     30 H8         -2.3132  -14.3897  -20.6698 H           1 DSK       0.2100
     31 H9          0.9600  -24.3201  -18.1568 H           1 DSK       0.2101
     32 H10         2.0882  -14.2494  -20.6825 H           1 DSK       0.0584
     33 H11         2.8226  -15.7463  -20.0730 H           1 DSK       0.0584
     34 H12        -2.4715  -22.4674  -20.2973 H           1 DSK       0.0608
     35 H13        -1.5866  -21.1957  -21.1632 H           1 DSK       0.0608
     36 H14        -0.6682  -18.3912  -18.0193 H           1 DSK       0.0867
     37 H15        -0.5029  -19.0120  -19.6770 H           1 DSK       0.0867
     38 H16         0.4587  -20.4117  -17.0679 H           1 DSK       0.0867
     39 H17        -0.8961  -20.5307  -15.9304 H           1 DSK       0.0867
     40 H18         0.8767  -17.0123  -20.3447 H           1 DSK       0.0643
     41 H19        -3.0760  -18.7945  -19.8401 H           1 DSK       0.0667
     42 H20         0.6122  -22.6888  -16.3762 H           1 DSK       0.0668
     43 H21         0.3920  -15.7120  -18.4593 H           1 DSK       0.0647
     44 H22        -1.5693  -17.1168  -20.9132 H           1 DSK       0.0647
     45 H23        -1.8580  -15.7043  -18.2428 H           1 DSK       0.0647
     46 H24        -1.1368  -23.6983  -18.4348 H           1 DSK       0.0672
     47 H25         0.2347  -21.2305  -19.5415 H           1 DSK       0.0928
@<TRIPOS>BOND
     1    10     1   1
     2    11     2   1
     3    14     3   1
     4    15     4   1
     5    16     5   1
     6    17     6   1
     7    18     7   1
     8    19     8   1
     9    20     9   1
    10    14    10   1
    11    21    11   1
    12    12    15   1
    13    22    12   1
    14    16    13   1
    15    13    22   1
    16    17    14   1
    17    15    18   1
    18    20    16   1
    19    19    17   1
    20    18    19   1
    21    20    21   1
    22    21    22   1
    23     1    23   1
    24     2    24   1
    25     3    25   1
    26     4    26   1
    27     5    27   1
    28     6    28   1
    29     7    29   1
    30     8    30   1
    31     9    31   1
    32    10    32   1
    33    10    33   1
    34    11    34   1
    35    11    35   1
    36    12    36   1
    37    12    37   1
    38    13    38   1
    39    13    39   1
    40    14    40   1
    41    15    41   1
    42    16    42   1
    43    17    43   1
    44    18    44   1
    45    19    45   1
    46    20    46   1
    47    21    47   1
@<TRIPOS>SUBSTRUCTURE
     1  DSK     10

