@<TRIPOS>MOLECULE
3l4u_ligand_014
    47    47
SMALL
GAST_HUCK
****
This file was generated by PARSER (from files_GN.cpp)

@<TRIPOS>ATOM
      1 OAA         1.7859  -13.3747  -21.3812 O.3         1 DSK      -0.3924
      2 OAB         1.3494  -22.1096  -19.8310 O.3         1 DSK      -0.3900
      3 OAC        -0.2945  -15.6633  -23.0049 O.3         1 DSK      -0.3869
      4 OAD        -2.0772  -20.0895  -21.0462 O.3         1 DSK      -0.3845
      5 OAE        -1.5263  -22.4013  -14.4419 O.3         1 DSK      -0.3844
      6 OAF         0.2107  -15.7080  -19.4033 O.3         1 DSK      -0.3865
      7 OAG        -1.2115  -17.6126  -18.3966 O.3         1 DSK      -0.3864
      8 OAH        -1.4582  -17.7656  -22.0445 O.3         1 DSK      -0.3865
      9 OAI         0.9480  -20.9937  -15.4748 O.3         1 DSK      -0.3840
     10 CAJ         0.4572  -13.9066  -21.4817 C.3         1 DSK       0.0727
     11 CAK         1.2909  -22.4370  -18.4441 C.3         1 DSK       0.0944
     12 CAL        -2.1650  -20.4043  -18.6431 C.3         1 DSK       0.1385
     13 CAM        -2.1839  -22.4837  -16.8039 C.3         1 DSK       0.1386
     14 CAN         0.4985  -15.4328  -21.8278 C.3         1 DSK       0.1065
     15 CAO        -1.5292  -19.5898  -19.8166 C.3         1 DSK       0.1280
     16 CAP        -1.3268  -21.8050  -15.7219 C.3         1 DSK       0.1303
     17 CAQ         0.1013  -16.4094  -20.6561 C.3         1 DSK       0.1114
     18 CAR        -1.7922  -18.0398  -19.6450 C.3         1 DSK       0.1137
     19 CAS        -1.3245  -17.0726  -20.7917 C.3         1 DSK       0.1119
     20 CAT         0.1362  -21.9288  -16.1900 C.3         1 DSK       0.1349
     21 CAU         0.1508  -21.6581  -17.7253 C.3         1 DSK       0.1711
     22 SAV        -1.4859  -22.0871  -18.4223 S.3         1 DSK       0.0029
     23 H1          2.0948  -13.6331  -20.4859 H           1 DSK       0.2095
     24 H2          0.5309  -22.4866  -20.2188 H           1 DSK       0.2096
     25 H3         -1.1644  -15.2569  -22.7964 H           1 DSK       0.2100
     26 H4         -1.3258  -20.0593  -21.6737 H           1 DSK       0.2101
     27 H5         -1.9987  -21.7242  -13.9121 H           1 DSK       0.2101
     28 H6          1.1314  -15.3760  -19.3716 H           1 DSK       0.2100
     29 H7         -1.7181  -16.7961  -18.1779 H           1 DSK       0.2100
     30 H8         -0.5755  -18.1682  -22.1891 H           1 DSK       0.2100
     31 H9          1.8505  -21.1463  -15.8136 H           1 DSK       0.2101
     32 H10        -0.0568  -13.3528  -22.2795 H           1 DSK       0.0584
     33 H11        -0.0825  -13.7435  -20.5302 H           1 DSK       0.0584
     34 H12         2.2553  -22.1779  -17.9955 H           1 DSK       0.0608
     35 H13         1.1393  -23.5207  -18.3399 H           1 DSK       0.0608
     36 H14        -3.2367  -20.5215  -18.8234 H           1 DSK       0.0867
     37 H15        -2.0564  -19.8632  -17.6990 H           1 DSK       0.0867
     38 H16        -3.2272  -22.1809  -16.7471 H           1 DSK       0.0867
     39 H17        -2.1402  -23.5682  -16.6879 H           1 DSK       0.0867
     40 H18         1.5277  -15.6908  -22.1141 H           1 DSK       0.0643
     41 H19        -0.4405  -19.7670  -19.8138 H           1 DSK       0.0667
     42 H20        -1.6012  -20.7536  -15.6392 H           1 DSK       0.0668
     43 H21         0.8295  -17.2401  -20.6175 H           1 DSK       0.0647
     44 H22        -2.8917  -17.9144  -19.5360 H           1 DSK       0.0647
     45 H23        -2.0516  -16.2474  -20.8000 H           1 DSK       0.0647
     46 H24         0.4824  -22.9514  -15.9692 H           1 DSK       0.0672
     47 H25         0.3465  -20.5916  -17.8751 H           1 DSK       0.0928
@<TRIPOS>BOND
     1    10     1   1
     2    11     2   1
     3    14     3   1
     4    15     4   1
     5    16     5   1
     6    17     6   1
     7    18     7   1
     8    19     8   1
     9    20     9   1
    10    14    10   1
    11    21    11   1
    12    12    15   1
    13    22    12   1
    14    16    13   1
    15    13    22   1
    16    17    14   1
    17    15    18   1
    18    20    16   1
    19    19    17   1
    20    18    19   1
    21    20    21   1
    22    21    22   1
    23     1    23   1
    24     2    24   1
    25     3    25   1
    26     4    26   1
    27     5    27   1
    28     6    28   1
    29     7    29   1
    30     8    30   1
    31     9    31   1
    32    10    32   1
    33    10    33   1
    34    11    34   1
    35    11    35   1
    36    12    36   1
    37    12    37   1
    38    13    38   1
    39    13    39   1
    40    14    40   1
    41    15    41   1
    42    16    42   1
    43    17    43   1
    44    18    44   1
    45    19    45   1
    46    20    46   1
    47    21    47   1
@<TRIPOS>SUBSTRUCTURE
     1  DSK     10

