@<TRIPOS>MOLECULE
3l4u_ligand_023
    47    47
SMALL
GAST_HUCK
****
This file was generated by PARSER (from files_GN.cpp)

@<TRIPOS>ATOM
      1 OAA        -0.3100  -22.5328  -13.3853 O.3         1 DSK      -0.3924
      2 OAB        -2.5245  -15.3467  -17.0585 O.3         1 DSK      -0.3900
      3 OAC        -2.7072  -23.1678  -14.1630 O.3         1 DSK      -0.3869
      4 OAD        -3.7512  -20.3073  -20.0446 O.3         1 DSK      -0.3845
      5 OAE         1.2007  -15.5158  -21.3486 O.3         1 DSK      -0.3844
      6 OAF        -3.1956  -23.8920  -16.5796 O.3         1 DSK      -0.3865
      7 OAG        -1.1419  -20.1473  -17.4272 O.3         1 DSK      -0.3864
      8 OAH        -3.9436  -20.7970  -16.7640 O.3         1 DSK      -0.3865
      9 OAI         0.5256  -15.5018  -18.3851 O.3         1 DSK      -0.3840
     10 CAJ        -0.5634  -22.1391  -14.7449 C.3         1 DSK       0.0727
     11 CAK        -2.7902  -15.6413  -18.4284 C.3         1 DSK       0.0944
     12 CAL        -1.7129  -19.0063  -20.1851 C.3         1 DSK       0.1385
     13 CAM        -0.8864  -16.7773  -21.5867 C.3         1 DSK       0.1386
     14 CAN        -2.0817  -22.2661  -15.0932 C.3         1 DSK       0.1065
     15 CAO        -2.7161  -19.7389  -19.2361 C.3         1 DSK       0.1280
     16 CAP         0.2680  -16.3471  -20.6573 C.3         1 DSK       0.1303
     17 CAQ        -2.3815  -22.7171  -16.5738 C.3         1 DSK       0.1114
     18 CAR        -2.0423  -20.8043  -18.3186 C.3         1 DSK       0.1137
     19 CAS        -3.0565  -21.6525  -17.4940 C.3         1 DSK       0.1119
     20 CAT        -0.3957  -15.6225  -19.4713 C.3         1 DSK       0.1349
     21 CAU        -1.6399  -16.4619  -19.0646 C.3         1 DSK       0.1711
     22 SAV        -2.2733  -17.3064  -20.5478 S.3         1 DSK       0.0029
     23 H1          0.5435  -22.0906  -13.1338 H           1 DSK       0.2095
     24 H2         -1.7602  -14.7335  -17.0653 H           1 DSK       0.2096
     25 H3         -3.0614  -22.5864  -13.4488 H           1 DSK       0.2100
     26 H4         -3.3235  -21.0434  -20.5314 H           1 DSK       0.2101
     27 H5          1.6509  -16.1347  -21.9590 H           1 DSK       0.2101
     28 H6         -4.0237  -23.6386  -16.1243 H           1 DSK       0.2100
     29 H7         -0.2491  -20.2161  -17.8281 H           1 DSK       0.2100
     30 H8         -4.8019  -21.2747  -16.7434 H           1 DSK       0.2100
     31 H9          0.2943  -14.6635  -17.9271 H           1 DSK       0.2101
     32 H10         0.0559  -22.7697  -15.3990 H           1 DSK       0.0584
     33 H11        -0.2377  -21.0942  -14.8644 H           1 DSK       0.0584
     34 H12        -2.9484  -14.7023  -18.9761 H           1 DSK       0.0608
     35 H13        -3.7221  -16.2177  -18.4531 H           1 DSK       0.0608
     36 H14        -1.6464  -19.5616  -21.1345 H           1 DSK       0.0867
     37 H15        -0.7044  -18.9895  -19.7483 H           1 DSK       0.0867
     38 H16        -0.5767  -17.5681  -22.2799 H           1 DSK       0.0867
     39 H17        -1.2272  -15.9198  -22.1770 H           1 DSK       0.0867
     40 H18        -2.5228  -21.2790  -14.9005 H           1 DSK       0.0643
     41 H19        -3.1979  -19.0063  -18.5824 H           1 DSK       0.0667
     42 H20         0.8005  -17.2326  -20.3004 H           1 DSK       0.0668
     43 H21        -1.4470  -23.0351  -17.0463 H           1 DSK       0.0647
     44 H22        -1.4556  -21.4774  -18.9484 H           1 DSK       0.0647
     45 H23        -3.6592  -22.1924  -18.2276 H           1 DSK       0.0647
     46 H24        -0.6964  -14.6207  -19.7958 H           1 DSK       0.0672
     47 H25        -1.3282  -17.1998  -18.3234 H           1 DSK       0.0928
@<TRIPOS>BOND
     1    10     1   1
     2    11     2   1
     3    14     3   1
     4    15     4   1
     5    16     5   1
     6    17     6   1
     7    18     7   1
     8    19     8   1
     9    20     9   1
    10    14    10   1
    11    21    11   1
    12    12    15   1
    13    22    12   1
    14    16    13   1
    15    13    22   1
    16    17    14   1
    17    15    18   1
    18    20    16   1
    19    19    17   1
    20    18    19   1
    21    20    21   1
    22    21    22   1
    23     1    23   1
    24     2    24   1
    25     3    25   1
    26     4    26   1
    27     5    27   1
    28     6    28   1
    29     7    29   1
    30     8    30   1
    31     9    31   1
    32    10    32   1
    33    10    33   1
    34    11    34   1
    35    11    35   1
    36    12    36   1
    37    12    37   1
    38    13    38   1
    39    13    39   1
    40    14    40   1
    41    15    41   1
    42    16    42   1
    43    17    43   1
    44    18    44   1
    45    19    45   1
    46    20    46   1
    47    21    47   1
@<TRIPOS>SUBSTRUCTURE
     1  DSK     10

