@<TRIPOS>MOLECULE
3l4u_ligand_058
    47    47
SMALL
GAST_HUCK
****
This file was generated by PARSER (from files_GN.cpp)

@<TRIPOS>ATOM
      1 OAA         2.4789  -13.3742  -21.1097 O.3         1 DSK      -0.3924
      2 OAB        -0.0171  -20.2093  -16.1880 O.3         1 DSK      -0.3900
      3 OAC         2.2333  -15.5457  -22.5202 O.3         1 DSK      -0.3869
      4 OAD        -3.8087  -16.0955  -18.8118 O.3         1 DSK      -0.3845
      5 OAE        -0.9527  -21.8097  -20.8902 O.3         1 DSK      -0.3844
      6 OAF        -0.1515  -15.6244  -23.6192 O.3         1 DSK      -0.3865
      7 OAG        -0.6460  -15.7349  -19.2934 O.3         1 DSK      -0.3864
      8 OAH        -1.0209  -17.6005  -21.7089 O.3         1 DSK      -0.3865
      9 OAI        -3.6133  -22.1170  -18.4385 O.3         1 DSK      -0.3840
     10 CAJ         1.5228  -14.2950  -20.5788 C.3         1 DSK       0.0727
     11 CAK        -0.3820  -21.1207  -17.2263 C.3         1 DSK       0.0944
     12 CAL        -2.2884  -17.9221  -18.4840 C.3         1 DSK       0.1385
     13 CAM        -2.4515  -19.9481  -20.3726 C.3         1 DSK       0.1386
     14 CAN         1.1732  -15.4429  -21.5630 C.3         1 DSK       0.1065
     15 CAO        -2.8175  -16.8617  -19.5086 C.3         1 DSK       0.1280
     16 CAP        -2.2224  -21.4635  -20.3343 C.3         1 DSK       0.1303
     17 CAQ        -0.2442  -15.3073  -22.2305 C.3         1 DSK       0.1114
     18 CAR        -1.7829  -15.8685  -20.1501 C.3         1 DSK       0.1137
     19 CAS        -1.3596  -16.2170  -21.6127 C.3         1 DSK       0.1119
     20 CAT        -2.2664  -21.8508  -18.8399 C.3         1 DSK       0.1349
     21 CAU        -1.6576  -20.6756  -18.0015 C.3         1 DSK       0.1711
     22 SAV        -1.2925  -19.2966  -19.1451 S.3         1 DSK       0.0029
     23 H1          3.2725  -13.9168  -21.2918 H           1 DSK       0.2095
     24 H2          0.2468  -19.3876  -16.6572 H           1 DSK       0.2096
     25 H3          2.1931  -16.4734  -22.8423 H           1 DSK       0.2100
     26 H4         -3.3604  -15.7501  -18.0140 H           1 DSK       0.2101
     27 H5         -0.7679  -21.1425  -21.5822 H           1 DSK       0.2101
     28 H6         -0.6759  -14.9281  -24.0720 H           1 DSK       0.2100
     29 H7         -0.9227  -15.0823  -18.5985 H           1 DSK       0.2100
     30 H8         -0.1659  -17.6373  -22.2213 H           1 DSK       0.2100
     31 H9         -4.0903  -21.2694  -18.5484 H           1 DSK       0.2101
     32 H10         0.6331  -13.7308  -20.2836 H           1 DSK       0.0584
     33 H11         1.9548  -14.7308  -19.6721 H           1 DSK       0.0584
     34 H12        -0.5640  -22.0892  -16.7478 H           1 DSK       0.0608
     35 H13         0.4609  -21.2370  -17.9196 H           1 DSK       0.0608
     36 H14        -3.1387  -18.3329  -17.9326 H           1 DSK       0.0867
     37 H15        -1.6597  -17.4031  -17.7634 H           1 DSK       0.0867
     38 H16        -3.4903  -19.7190  -20.1077 H           1 DSK       0.0867
     39 H17        -2.2381  -19.5514  -21.3680 H           1 DSK       0.0867
     40 H18         1.2135  -16.3768  -20.9926 H           1 DSK       0.0643
     41 H19        -3.3578  -17.3901  -20.3033 H           1 DSK       0.0667
     42 H20        -2.9999  -21.9787  -20.9006 H           1 DSK       0.0668
     43 H21        -0.5687  -14.2623  -22.1845 H           1 DSK       0.0647
     44 H22        -2.2411  -14.8756  -20.2024 H           1 DSK       0.0647
     45 H23        -2.2460  -16.0917  -22.2378 H           1 DSK       0.0647
     46 H24        -1.7209  -22.7889  -18.6988 H           1 DSK       0.0672
     47 H25        -2.3861  -20.3524  -17.2519 H           1 DSK       0.0928
@<TRIPOS>BOND
     1    10     1   1
     2    11     2   1
     3    14     3   1
     4    15     4   1
     5    16     5   1
     6    17     6   1
     7    18     7   1
     8    19     8   1
     9    20     9   1
    10    14    10   1
    11    21    11   1
    12    12    15   1
    13    22    12   1
    14    16    13   1
    15    13    22   1
    16    17    14   1
    17    15    18   1
    18    20    16   1
    19    19    17   1
    20    18    19   1
    21    20    21   1
    22    21    22   1
    23     1    23   1
    24     2    24   1
    25     3    25   1
    26     4    26   1
    27     5    27   1
    28     6    28   1
    29     7    29   1
    30     8    30   1
    31     9    31   1
    32    10    32   1
    33    10    33   1
    34    11    34   1
    35    11    35   1
    36    12    36   1
    37    12    37   1
    38    13    38   1
    39    13    39   1
    40    14    40   1
    41    15    41   1
    42    16    42   1
    43    17    43   1
    44    18    44   1
    45    19    45   1
    46    20    46   1
    47    21    47   1
@<TRIPOS>SUBSTRUCTURE
     1  DSK     10

