@<TRIPOS>MOLECULE
3l4u_ligand_072
    47    47
SMALL
GAST_HUCK
****
This file was generated by PARSER (from files_GN.cpp)

@<TRIPOS>ATOM
      1 OAA         0.3017  -21.3922  -25.2513 O.3         1 DSK      -0.3924
      2 OAB        -3.2695  -17.7979  -18.0329 O.3         1 DSK      -0.3900
      3 OAC        -1.4407  -21.7158  -23.1941 O.3         1 DSK      -0.3869
      4 OAD        -0.5495  -23.0876  -19.0015 O.3         1 DSK      -0.3845
      5 OAE        -4.9261  -20.0264  -21.1659 O.3         1 DSK      -0.3844
      6 OAF        -0.7987  -25.1026  -22.6194 O.3         1 DSK      -0.3865
      7 OAG         2.4482  -23.2214  -19.7265 O.3         1 DSK      -0.3864
      8 OAH         1.9444  -24.1233  -22.4269 O.3         1 DSK      -0.3865
      9 OAI        -2.1983  -18.5949  -22.3741 O.3         1 DSK      -0.3840
     10 CAJ         0.6129  -22.4123  -24.3007 C.3         1 DSK       0.0727
     11 CAK        -2.2736  -17.3585  -18.9550 C.3         1 DSK       0.0944
     12 CAL        -0.4307  -20.8805  -20.1437 C.3         1 DSK       0.1385
     13 CAM        -3.1628  -20.6820  -19.5669 C.3         1 DSK       0.1386
     14 CAN        -0.6505  -22.8580  -23.5189 C.3         1 DSK       0.1065
     15 CAO         0.3254  -22.0877  -19.5275 C.3         1 DSK       0.1280
     16 CAP        -3.5127  -20.1084  -20.9585 C.3         1 DSK       0.1303
     17 CAQ        -0.4552  -23.7620  -22.2434 C.3         1 DSK       0.1114
     18 CAR         1.3725  -22.7052  -20.5224 C.3         1 DSK       0.1137
     19 CAS         0.9105  -23.8615  -21.4762 C.3         1 DSK       0.1119
     20 CAT        -2.8438  -18.7148  -21.1001 C.3         1 DSK       0.1349
     21 CAU        -1.8333  -18.4824  -19.9330 C.3         1 DSK       0.1711
     22 SAV        -1.5714  -20.0280  -19.0107 S.3         1 DSK       0.0029
     23 H1         -0.5517  -21.6572  -25.6513 H           1 DSK       0.2095
     24 H2         -3.4682  -17.0131  -17.4790 H           1 DSK       0.2096
     25 H3         -1.8643  -21.4420  -24.0402 H           1 DSK       0.2100
     26 H4         -1.3165  -23.1273  -19.6074 H           1 DSK       0.2101
     27 H5         -5.2500  -20.9516  -21.1643 H           1 DSK       0.2101
     28 H6         -1.1330  -25.5276  -21.8011 H           1 DSK       0.2100
     29 H7          2.0367  -23.8891  -19.1367 H           1 DSK       0.2100
     30 H8          2.7519  -24.3055  -21.8967 H           1 DSK       0.2100
     31 H9         -1.3345  -19.0483  -22.2785 H           1 DSK       0.2101
     32 H10         1.3700  -22.0092  -23.6244 H           1 DSK       0.0584
     33 H11         1.0295  -23.2618  -24.8420 H           1 DSK       0.0584
     34 H12        -1.4121  -16.9939  -18.3900 H           1 DSK       0.0608
     35 H13        -2.6802  -16.5186  -19.5251 H           1 DSK       0.0608
     36 H14        -0.9582  -21.2041  -21.0305 H           1 DSK       0.0867
     37 H15         0.3271  -20.1590  -20.4590 H           1 DSK       0.0867
     38 H16        -3.1447  -21.7726  -19.5889 H           1 DSK       0.0867
     39 H17        -3.9100  -20.3722  -18.8367 H           1 DSK       0.0867
     40 H18        -1.2654  -23.4142  -24.2329 H           1 DSK       0.0643
     41 H19         0.8646  -21.6922  -18.6594 H           1 DSK       0.0667
     42 H20        -3.1291  -20.7872  -21.7246 H           1 DSK       0.0668
     43 H21        -1.2162  -23.4740  -21.5134 H           1 DSK       0.0647
     44 H22         1.8045  -21.9021  -21.1298 H           1 DSK       0.0647
     45 H23         0.8520  -24.7627  -20.8529 H           1 DSK       0.0647
     46 H24        -3.6180  -17.9403  -21.0895 H           1 DSK       0.0672
     47 H25        -0.8693  -18.1620  -20.3414 H           1 DSK       0.0928
@<TRIPOS>BOND
     1    10     1   1
     2    11     2   1
     3    14     3   1
     4    15     4   1
     5    16     5   1
     6    17     6   1
     7    18     7   1
     8    19     8   1
     9    20     9   1
    10    14    10   1
    11    21    11   1
    12    12    15   1
    13    22    12   1
    14    16    13   1
    15    13    22   1
    16    17    14   1
    17    15    18   1
    18    20    16   1
    19    19    17   1
    20    18    19   1
    21    20    21   1
    22    21    22   1
    23     1    23   1
    24     2    24   1
    25     3    25   1
    26     4    26   1
    27     5    27   1
    28     6    28   1
    29     7    29   1
    30     8    30   1
    31     9    31   1
    32    10    32   1
    33    10    33   1
    34    11    34   1
    35    11    35   1
    36    12    36   1
    37    12    37   1
    38    13    38   1
    39    13    39   1
    40    14    40   1
    41    15    41   1
    42    16    42   1
    43    17    43   1
    44    18    44   1
    45    19    45   1
    46    20    46   1
    47    21    47   1
@<TRIPOS>SUBSTRUCTURE
     1  DSK     10

