@<TRIPOS>MOLECULE
3l4u_ligand_079
    47    47
SMALL
GAST_HUCK
****
This file was generated by PARSER (from files_GN.cpp)

@<TRIPOS>ATOM
      1 OAA         0.5189  -15.5900  -17.5394 O.3         1 DSK      -0.3924
      2 OAB        -1.5442  -26.3977  -21.4233 O.3         1 DSK      -0.3900
      3 OAC        -2.5127  -14.5518  -19.1621 O.3         1 DSK      -0.3869
      4 OAD        -0.7768  -19.7211  -19.5627 O.3         1 DSK      -0.3845
      5 OAE         1.7918  -23.4620  -22.8036 O.3         1 DSK      -0.3844
      6 OAF         0.1641  -16.7712  -20.4127 O.3         1 DSK      -0.3865
      7 OAG        -2.8299  -18.6942  -22.4188 O.3         1 DSK      -0.3864
      8 OAH        -3.4783  -16.6121  -20.9833 O.3         1 DSK      -0.3865
      9 OAI        -1.4599  -23.4140  -23.7970 O.3         1 DSK      -0.3840
     10 CAJ        -0.8563  -15.7864  -17.8626 C.3         1 DSK       0.0727
     11 CAK        -1.2768  -25.2516  -20.6126 C.3         1 DSK       0.0944
     12 CAL        -1.9274  -21.1421  -21.2532 C.3         1 DSK       0.1385
     13 CAM         0.5255  -22.4331  -20.9896 C.3         1 DSK       0.1386
     14 CAN        -1.2175  -15.1505  -19.2403 C.3         1 DSK       0.1065
     15 CAO        -1.9159  -19.8157  -20.4333 C.3         1 DSK       0.1280
     16 CAP         0.5334  -22.8738  -22.4685 C.3         1 DSK       0.1303
     17 CAQ        -1.1228  -16.1462  -20.4437 C.3         1 DSK       0.1114
     18 CAR        -1.9407  -18.5254  -21.3172 C.3         1 DSK       0.1137
     19 CAS        -2.2712  -17.2187  -20.4972 C.3         1 DSK       0.1119
     20 CAT        -0.6486  -23.8516  -22.7068 C.3         1 DSK       0.1349
     21 CAU        -1.5250  -23.9485  -21.4193 C.3         1 DSK       0.1711
     22 SAV        -1.1584  -22.5289  -20.3486 S.3         1 DSK       0.0029
     23 H1          0.5565  -14.6537  -17.2442 H           1 DSK       0.2095
     24 H2         -1.3553  -27.1682  -20.8475 H           1 DSK       0.2096
     25 H3         -2.4220  -13.8109  -18.5323 H           1 DSK       0.2100
     26 H4         -0.8604  -20.4679  -18.9299 H           1 DSK       0.2101
     27 H5          2.4616  -22.7978  -22.5401 H           1 DSK       0.2101
     28 H6          0.7533  -16.1600  -20.9147 H           1 DSK       0.2100
     29 H7         -3.7213  -18.8509  -22.0214 H           1 DSK       0.2100
     30 H8         -3.1957  -15.8466  -21.5449 H           1 DSK       0.2100
     31 H9         -0.8491  -23.3473  -24.5668 H           1 DSK       0.2101
     32 H10        -1.4584  -15.3394  -17.0672 H           1 DSK       0.0584
     33 H11        -1.0558  -16.8558  -17.8678 H           1 DSK       0.0584
     34 H12        -0.2417  -25.3046  -20.2676 H           1 DSK       0.0608
     35 H13        -1.9353  -25.2964  -19.7429 H           1 DSK       0.0608
     36 H14        -1.4371  -20.9865  -22.2147 H           1 DSK       0.0867
     37 H15        -2.9588  -21.4085  -21.4657 H           1 DSK       0.0867
     38 H16         0.9182  -21.4224  -20.8751 H           1 DSK       0.0867
     39 H17         1.1396  -23.1050  -20.3892 H           1 DSK       0.0867
     40 H18        -0.5177  -14.3286  -19.4320 H           1 DSK       0.0643
     41 H19        -2.8009  -19.8332  -19.7933 H           1 DSK       0.0667
     42 H20         0.4266  -21.9986  -23.1094 H           1 DSK       0.0668
     43 H21        -1.1669  -15.5816  -21.3751 H           1 DSK       0.0647
     44 H22        -0.9537  -18.4290  -21.7829 H           1 DSK       0.0647
     45 H23        -2.5130  -17.5062  -19.4658 H           1 DSK       0.0647
     46 H24        -0.2643  -24.8371  -22.9860 H           1 DSK       0.0672
     47 H25        -2.5884  -23.9272  -21.6722 H           1 DSK       0.0928
@<TRIPOS>BOND
     1    10     1   1
     2    11     2   1
     3    14     3   1
     4    15     4   1
     5    16     5   1
     6    17     6   1
     7    18     7   1
     8    19     8   1
     9    20     9   1
    10    14    10   1
    11    21    11   1
    12    12    15   1
    13    22    12   1
    14    16    13   1
    15    13    22   1
    16    17    14   1
    17    15    18   1
    18    20    16   1
    19    19    17   1
    20    18    19   1
    21    20    21   1
    22    21    22   1
    23     1    23   1
    24     2    24   1
    25     3    25   1
    26     4    26   1
    27     5    27   1
    28     6    28   1
    29     7    29   1
    30     8    30   1
    31     9    31   1
    32    10    32   1
    33    10    33   1
    34    11    34   1
    35    11    35   1
    36    12    36   1
    37    12    37   1
    38    13    38   1
    39    13    39   1
    40    14    40   1
    41    15    41   1
    42    16    42   1
    43    17    43   1
    44    18    44   1
    45    19    45   1
    46    20    46   1
    47    21    47   1
@<TRIPOS>SUBSTRUCTURE
     1  DSK     10

