@<TRIPOS>MOLECULE
3l4u_ligand_067
    47    47
SMALL
GAST_HUCK
****
This file was generated by PARSER (from files_GN.cpp)

@<TRIPOS>ATOM
      1 OAA         0.5117  -23.4922  -19.7902 O.3         1 DSK      -0.3924
      2 OAB         0.2020  -15.9082  -17.9260 O.3         1 DSK      -0.3900
      3 OAC         1.0498  -22.9473  -23.3707 O.3         1 DSK      -0.3869
      4 OAD        -3.6659  -19.7822  -20.4928 O.3         1 DSK      -0.3845
      5 OAE        -3.9262  -15.6573  -20.0058 O.3         1 DSK      -0.3844
      6 OAF        -1.8671  -24.4283  -21.9069 O.3         1 DSK      -0.3865
      7 OAG        -3.5983  -22.4739  -20.3941 O.3         1 DSK      -0.3864
      8 OAH        -3.0504  -21.7609  -22.9360 O.3         1 DSK      -0.3865
      9 OAI        -1.6008  -16.4734  -22.2794 O.3         1 DSK      -0.3840
     10 CAJ         0.9103  -22.7935  -20.9726 C.3         1 DSK       0.0727
     11 CAK         0.3303  -15.7002  -19.3314 C.3         1 DSK       0.0944
     12 CAL        -1.2455  -19.4532  -20.3261 C.3         1 DSK       0.1385
     13 CAM        -2.6214  -17.3973  -18.9353 C.3         1 DSK       0.1386
     14 CAN         0.3250  -23.4450  -22.2459 C.3         1 DSK       0.1065
     15 CAO        -2.4633  -20.3880  -20.0512 C.3         1 DSK       0.1280
     16 CAP        -2.9690  -16.6881  -20.2568 C.3         1 DSK       0.1303
     17 CAQ        -1.2019  -23.3208  -22.4991 C.3         1 DSK       0.1114
     18 CAR        -2.3378  -21.8293  -20.6104 C.3         1 DSK       0.1137
     19 CAS        -1.9035  -21.9715  -22.1071 C.3         1 DSK       0.1119
     20 CAT        -1.6592  -16.1647  -20.8888 C.3         1 DSK       0.1349
     21 CAU        -0.4251  -16.7658  -20.1592 C.3         1 DSK       0.1711
     22 SAV        -0.9830  -18.1307  -19.0914 S.3         1 DSK       0.0029
     23 H1          0.9117  -22.9800  -19.0539 H           1 DSK       0.2095
     24 H2          0.1556  -15.0044  -17.5294 H           1 DSK       0.2096
     25 H3          0.9287  -21.9768  -23.3642 H           1 DSK       0.2100
     26 H4         -3.6088  -19.8182  -21.4721 H           1 DSK       0.2101
     27 H5         -3.8985  -15.1000  -20.8092 H           1 DSK       0.2101
     28 H6         -2.6824  -24.5668  -22.4330 H           1 DSK       0.2100
     29 H7         -3.4173  -23.4362  -20.3424 H           1 DSK       0.2100
     30 H8         -2.7068  -21.5561  -23.8378 H           1 DSK       0.2100
     31 H9         -2.0425  -15.7212  -22.7345 H           1 DSK       0.2101
     32 H10         2.0063  -22.8041  -21.0182 H           1 DSK       0.0584
     33 H11         0.5996  -21.7406  -20.8859 H           1 DSK       0.0584
     34 H12         1.4003  -15.7062  -19.5649 H           1 DSK       0.0608
     35 H13        -0.0381  -14.6930  -19.5711 H           1 DSK       0.0608
     36 H14        -1.3468  -19.0340  -21.3332 H           1 DSK       0.0867
     37 H15        -0.3161  -20.0329  -20.3019 H           1 DSK       0.0867
     38 H16        -3.3635  -18.1490  -18.6744 H           1 DSK       0.0867
     39 H17        -2.5925  -16.6806  -18.1153 H           1 DSK       0.0867
     40 H18         0.5615  -24.4964  -22.1832 H           1 DSK       0.0643
     41 H19        -2.5566  -20.5048  -18.9814 H           1 DSK       0.0667
     42 H20        -3.4314  -17.4162  -20.9288 H           1 DSK       0.0668
     43 H21        -1.3275  -23.4580  -23.5700 H           1 DSK       0.0647
     44 H22        -1.6156  -22.3541  -19.9832 H           1 DSK       0.0647
     45 H23        -1.2240  -21.1553  -22.3601 H           1 DSK       0.0647
     46 H24        -1.6637  -15.0711  -20.8284 H           1 DSK       0.0672
     47 H25         0.2888  -17.1578  -20.8829 H           1 DSK       0.0928
@<TRIPOS>BOND
     1    10     1   1
     2    11     2   1
     3    14     3   1
     4    15     4   1
     5    16     5   1
     6    17     6   1
     7    18     7   1
     8    19     8   1
     9    20     9   1
    10    14    10   1
    11    21    11   1
    12    12    15   1
    13    22    12   1
    14    16    13   1
    15    13    22   1
    16    17    14   1
    17    15    18   1
    18    20    16   1
    19    19    17   1
    20    18    19   1
    21    20    21   1
    22    21    22   1
    23     1    23   1
    24     2    24   1
    25     3    25   1
    26     4    26   1
    27     5    27   1
    28     6    28   1
    29     7    29   1
    30     8    30   1
    31     9    31   1
    32    10    32   1
    33    10    33   1
    34    11    34   1
    35    11    35   1
    36    12    36   1
    37    12    37   1
    38    13    38   1
    39    13    39   1
    40    14    40   1
    41    15    41   1
    42    16    42   1
    43    17    43   1
    44    18    44   1
    45    19    45   1
    46    20    46   1
    47    21    47   1
@<TRIPOS>SUBSTRUCTURE
     1  DSK     10

