@<TRIPOS>MOLECULE
3l4u_ligand_046
    47    47
SMALL
GAST_HUCK
****
This file was generated by PARSER (from files_GN.cpp)

@<TRIPOS>ATOM
      1 OAA        -0.4164  -15.7703  -17.6588 O.3         1 DSK      -0.3924
      2 OAB        -5.6904  -23.5876  -20.2109 O.3         1 DSK      -0.3900
      3 OAC        -3.2721  -14.2623  -19.1423 O.3         1 DSK      -0.3869
      4 OAD        -0.4706  -19.2038  -19.5615 O.3         1 DSK      -0.3845
      5 OAE        -4.5983  -24.1300  -22.8499 O.3         1 DSK      -0.3844
      6 OAF        -4.0927  -16.1062  -20.7083 O.3         1 DSK      -0.3865
      7 OAG        -3.6182  -19.0005  -21.4299 O.3         1 DSK      -0.3864
      8 OAH        -0.5565  -17.0002  -20.8153 O.3         1 DSK      -0.3865
      9 OAI        -3.5430  -20.6539  -22.9111 O.3         1 DSK      -0.3840
     10 CAJ        -1.8349  -15.6761  -17.7865 C.3         1 DSK       0.0727
     11 CAK        -5.5830  -22.1680  -20.1201 C.3         1 DSK       0.0944
     12 CAL        -1.4941  -21.1709  -20.5822 C.3         1 DSK       0.1385
     13 CAM        -2.6683  -23.5011  -21.4865 C.3         1 DSK       0.1386
     14 CAN        -2.2925  -15.3090  -19.2346 C.3         1 DSK       0.1065
     15 CAO        -1.7006  -19.6863  -20.1158 C.3         1 DSK       0.1280
     16 CAP        -3.6163  -23.1041  -22.6546 C.3         1 DSK       0.1303
     17 CAQ        -2.8997  -16.5180  -20.0259 C.3         1 DSK       0.1114
     18 CAR        -2.2226  -18.7436  -21.2529 C.3         1 DSK       0.1137
     19 CAS        -1.9512  -17.2083  -21.0665 C.3         1 DSK       0.1119
     20 CAT        -4.2810  -21.7354  -22.3322 C.3         1 DSK       0.1349
     21 CAU        -4.3073  -21.5711  -20.7887 C.3         1 DSK       0.1711
     22 SAV        -2.8108  -22.3395  -20.1024 S.3         1 DSK       0.0029
     23 H1         -0.1450  -14.8605  -17.4224 H           1 DSK       0.2095
     24 H2         -4.9199  -23.9312  -19.7082 H           1 DSK       0.2096
     25 H3         -2.8326  -13.5383  -18.6481 H           1 DSK       0.2100
     26 H4         -0.3968  -19.6206  -18.6752 H           1 DSK       0.2101
     27 H5         -5.0708  -23.8695  -23.6651 H           1 DSK       0.2101
     28 H6         -3.8103  -15.4085  -21.3321 H           1 DSK       0.2100
     29 H7         -3.9613  -18.2437  -21.9743 H           1 DSK       0.2100
     30 H8         -0.0945  -17.5485  -21.4904 H           1 DSK       0.2100
     31 H9         -3.5221  -20.8257  -23.8773 H           1 DSK       0.2101
     32 H10        -2.1768  -14.9209  -17.0718 H           1 DSK       0.0584
     33 H11        -2.2721  -16.6300  -17.4758 H           1 DSK       0.0584
     34 H12        -5.6008  -21.8809  -19.0626 H           1 DSK       0.0608
     35 H13        -6.4698  -21.7334  -20.5929 H           1 DSK       0.0608
     36 H14        -0.5785  -21.5682  -20.1141 H           1 DSK       0.0867
     37 H15        -1.3029  -21.2198  -21.6583 H           1 DSK       0.0867
     38 H16        -1.6293  -23.5562  -21.8372 H           1 DSK       0.0867
     39 H17        -2.9267  -24.4932  -21.0938 H           1 DSK       0.0867
     40 H18        -1.4452  -14.8889  -19.7930 H           1 DSK       0.0643
     41 H19        -2.4255  -19.6734  -19.2954 H           1 DSK       0.0667
     42 H20        -3.0362  -23.0298  -23.5884 H           1 DSK       0.0668
     43 H21        -3.2408  -17.2476  -19.2917 H           1 DSK       0.0647
     44 H22        -1.7254  -19.0186  -22.1867 H           1 DSK       0.0647
     45 H23        -2.1189  -16.7316  -22.0368 H           1 DSK       0.0647
     46 H24        -5.2971  -21.6957  -22.7513 H           1 DSK       0.0672
     47 H25        -4.3021  -20.5011  -20.5473 H           1 DSK       0.0928
@<TRIPOS>BOND
     1    10     1   1
     2    11     2   1
     3    14     3   1
     4    15     4   1
     5    16     5   1
     6    17     6   1
     7    18     7   1
     8    19     8   1
     9    20     9   1
    10    14    10   1
    11    21    11   1
    12    12    15   1
    13    22    12   1
    14    16    13   1
    15    13    22   1
    16    17    14   1
    17    15    18   1
    18    20    16   1
    19    19    17   1
    20    18    19   1
    21    20    21   1
    22    21    22   1
    23     1    23   1
    24     2    24   1
    25     3    25   1
    26     4    26   1
    27     5    27   1
    28     6    28   1
    29     7    29   1
    30     8    30   1
    31     9    31   1
    32    10    32   1
    33    10    33   1
    34    11    34   1
    35    11    35   1
    36    12    36   1
    37    12    37   1
    38    13    38   1
    39    13    39   1
    40    14    40   1
    41    15    41   1
    42    16    42   1
    43    17    43   1
    44    18    44   1
    45    19    45   1
    46    20    46   1
    47    21    47   1
@<TRIPOS>SUBSTRUCTURE
     1  DSK     10

