@<TRIPOS>MOLECULE
3l4u_ligand_041
    47    47
SMALL
GAST_HUCK
****
This file was generated by PARSER (from files_GN.cpp)

@<TRIPOS>ATOM
      1 OAA         1.7800  -13.3328  -21.4251 O.3         1 DSK      -0.3924
      2 OAB        -0.5497  -22.5102  -21.7573 O.3         1 DSK      -0.3900
      3 OAC        -0.2404  -15.7522  -22.9627 O.3         1 DSK      -0.3869
      4 OAD        -2.2019  -18.9527  -22.8291 O.3         1 DSK      -0.3845
      5 OAE        -5.1226  -24.2097  -19.4343 O.3         1 DSK      -0.3844
      6 OAF         0.6515  -15.9146  -19.3630 O.3         1 DSK      -0.3865
      7 OAG        -3.8444  -16.7360  -20.9695 O.3         1 DSK      -0.3864
      8 OAH        -2.0662  -15.1239  -19.8611 O.3         1 DSK      -0.3865
      9 OAI        -2.2727  -23.9012  -18.3874 O.3         1 DSK      -0.3840
     10 CAJ         0.4530  -13.8824  -21.5002 C.3         1 DSK       0.0727
     11 CAK        -0.6933  -22.1121  -20.3865 C.3         1 DSK       0.0944
     12 CAL        -3.3841  -19.5559  -20.7695 C.3         1 DSK       0.1385
     13 CAM        -4.7482  -21.9787  -20.4572 C.3         1 DSK       0.1386
     14 CAN         0.4645  -15.4334  -21.7516 C.3         1 DSK       0.1065
     15 CAO        -2.2852  -18.6545  -21.4272 C.3         1 DSK       0.1280
     16 CAP        -4.3369  -23.0077  -19.3802 C.3         1 DSK       0.1303
     17 CAQ        -0.0201  -16.3303  -20.5594 C.3         1 DSK       0.1114
     18 CAR        -2.4876  -17.0951  -21.2867 C.3         1 DSK       0.1137
     19 CAS        -1.5557  -16.4101  -20.2172 C.3         1 DSK       0.1119
     20 CAT        -2.8321  -23.3144  -19.5674 C.3         1 DSK       0.1349
     21 CAU        -2.1655  -21.9672  -19.9294 C.3         1 DSK       0.1711
     22 SAV        -3.2462  -21.3134  -21.2305 S.3         1 DSK       0.0029
     23 H1          2.1051  -13.6309  -20.5476 H           1 DSK       0.2095
     24 H2         -0.2605  -21.6942  -22.2216 H           1 DSK       0.2096
     25 H3         -1.0279  -15.1696  -22.9423 H           1 DSK       0.2100
     26 H4         -1.4360  -19.5562  -22.9022 H           1 DSK       0.2101
     27 H5         -4.9703  -24.5700  -20.3334 H           1 DSK       0.2101
     28 H6          1.4819  -15.5017  -19.6875 H           1 DSK       0.2100
     29 H7         -3.8966  -15.7912  -21.2405 H           1 DSK       0.2100
     30 H8         -2.2418  -14.6789  -20.7199 H           1 DSK       0.2100
     31 H9         -2.3442  -23.2090  -17.6964 H           1 DSK       0.2101
     32 H10        -0.0737  -13.3828  -22.3275 H           1 DSK       0.0584
     33 H11        -0.0709  -13.6272  -20.5702 H           1 DSK       0.0584
     34 H12        -0.1557  -21.1653  -20.2429 H           1 DSK       0.0608
     35 H13        -0.1877  -22.8666  -19.7694 H           1 DSK       0.0608
     36 H14        -4.3676  -19.2059  -21.1189 H           1 DSK       0.0867
     37 H15        -3.3340  -19.4230  -19.6800 H           1 DSK       0.0867
     38 H16        -5.3808  -21.1992  -20.0129 H           1 DSK       0.0867
     39 H17        -5.3297  -22.4753  -21.2415 H           1 DSK       0.0867
     40 H18         1.5113  -15.7154  -21.9392 H           1 DSK       0.0643
     41 H19        -1.3223  -18.9450  -20.9734 H           1 DSK       0.0667
     42 H20        -4.4909  -22.5696  -18.3853 H           1 DSK       0.0668
     43 H21         0.3220  -17.3602  -20.7630 H           1 DSK       0.0647
     44 H22        -2.2910  -16.6312  -22.2518 H           1 DSK       0.0647
     45 H23        -1.6472  -17.0101  -19.3039 H           1 DSK       0.0647
     46 H24        -2.7081  -24.0277  -20.3948 H           1 DSK       0.0672
     47 H25        -2.1843  -21.3268  -19.0435 H           1 DSK       0.0928
@<TRIPOS>BOND
     1    10     1   1
     2    11     2   1
     3    14     3   1
     4    15     4   1
     5    16     5   1
     6    17     6   1
     7    18     7   1
     8    19     8   1
     9    20     9   1
    10    14    10   1
    11    21    11   1
    12    12    15   1
    13    22    12   1
    14    16    13   1
    15    13    22   1
    16    17    14   1
    17    15    18   1
    18    20    16   1
    19    19    17   1
    20    18    19   1
    21    20    21   1
    22    21    22   1
    23     1    23   1
    24     2    24   1
    25     3    25   1
    26     4    26   1
    27     5    27   1
    28     6    28   1
    29     7    29   1
    30     8    30   1
    31     9    31   1
    32    10    32   1
    33    10    33   1
    34    11    34   1
    35    11    35   1
    36    12    36   1
    37    12    37   1
    38    13    38   1
    39    13    39   1
    40    14    40   1
    41    15    41   1
    42    16    42   1
    43    17    43   1
    44    18    44   1
    45    19    45   1
    46    20    46   1
    47    21    47   1
@<TRIPOS>SUBSTRUCTURE
     1  DSK     10

