@<TRIPOS>MOLECULE
3l4u_ligand_070
    47    47
SMALL
GAST_HUCK
****
This file was generated by PARSER (from files_GN.cpp)

@<TRIPOS>ATOM
      1 OAA         0.1851  -15.7509  -23.2793 O.3         1 DSK      -0.3924
      2 OAB         0.0737  -21.4434  -24.7677 O.3         1 DSK      -0.3900
      3 OAC         1.0715  -16.1118  -20.2898 O.3         1 DSK      -0.3869
      4 OAD        -3.9349  -20.2453  -21.0522 O.3         1 DSK      -0.3845
      5 OAE        -1.6516  -25.2839  -23.2892 O.3         1 DSK      -0.3844
      6 OAF        -1.7150  -16.7091  -22.2167 O.3         1 DSK      -0.3865
      7 OAG        -2.3568  -19.3472  -18.6804 O.3         1 DSK      -0.3864
      8 OAH        -0.7572  -17.3733  -18.7235 O.3         1 DSK      -0.3865
      9 OAI         0.5226  -24.0213  -20.6267 O.3         1 DSK      -0.3840
     10 CAJ         0.3178  -14.8354  -22.1888 C.3         1 DSK       0.0727
     11 CAK         0.4145  -22.6563  -24.1000 C.3         1 DSK       0.0944
     12 CAL        -1.5918  -20.9733  -20.9926 C.3         1 DSK       0.1385
     13 CAM        -2.3462  -23.6203  -21.6366 C.3         1 DSK       0.1386
     14 CAN        -0.0848  -15.4704  -20.8334 C.3         1 DSK       0.1065
     15 CAO        -2.5818  -19.7751  -21.0762 C.3         1 DSK       0.1280
     16 CAP        -1.3522  -24.7409  -22.0019 C.3         1 DSK       0.1303
     17 CAQ        -1.3382  -16.4196  -20.8717 C.3         1 DSK       0.1114
     18 CAR        -2.3925  -18.6943  -19.9530 C.3         1 DSK       0.1137
     19 CAS        -1.1474  -17.7436  -20.0550 C.3         1 DSK       0.1119
     20 CAT         0.0550  -24.1032  -21.9771 C.3         1 DSK       0.1349
     21 CAU        -0.0396  -22.6861  -22.6164 C.3         1 DSK       0.1711
     22 SAV        -1.7545  -22.0960  -22.4186 S.3         1 DSK       0.0029
     23 H1          0.5916  -16.5929  -22.9794 H           1 DSK       0.2095
     24 H2         -0.8496  -21.5726  -25.0730 H           1 DSK       0.2096
     25 H3          1.4226  -16.6833  -20.9955 H           1 DSK       0.2100
     26 H4         -3.9976  -20.8775  -20.2979 H           1 DSK       0.2101
     27 H5         -1.8055  -24.5136  -23.8727 H           1 DSK       0.2101
     28 H6         -2.0524  -15.8523  -22.5677 H           1 DSK       0.2100
     29 H7         -3.2625  -19.7029  -18.5264 H           1 DSK       0.2100
     30 H8         -1.5282  -16.9169  -18.3274 H           1 DSK       0.2100
     31 H9         -0.1013  -23.4366  -20.1487 H           1 DSK       0.2101
     32 H10        -0.2952  -13.9550  -22.3861 H           1 DSK       0.0584
     33 H11         1.3570  -14.5014  -22.1374 H           1 DSK       0.0584
     34 H12         1.4996  -22.7516  -24.1498 H           1 DSK       0.0608
     35 H13        -0.0305  -23.4826  -24.6632 H           1 DSK       0.0608
     36 H14        -1.7220  -21.5026  -20.0443 H           1 DSK       0.0867
     37 H15        -0.5742  -20.5827  -21.0104 H           1 DSK       0.0867
     38 H16        -2.4076  -23.5177  -20.5530 H           1 DSK       0.0867
     39 H17        -3.3450  -23.8544  -22.0059 H           1 DSK       0.0867
     40 H18        -0.3086  -14.6611  -20.1383 H           1 DSK       0.0643
     41 H19        -2.4566  -19.3011  -22.0521 H           1 DSK       0.0667
     42 H20        -1.4149  -25.5572  -21.2719 H           1 DSK       0.0668
     43 H21        -2.1812  -15.8814  -20.4279 H           1 DSK       0.0647
     44 H22        -3.2700  -18.0460  -19.9537 H           1 DSK       0.0647
     45 H23        -0.3165  -18.3041  -20.4790 H           1 DSK       0.0647
     46 H24         0.7686  -24.7307  -22.5147 H           1 DSK       0.0672
     47 H25         0.6458  -22.0209  -22.0862 H           1 DSK       0.0928
@<TRIPOS>BOND
     1    10     1   1
     2    11     2   1
     3    14     3   1
     4    15     4   1
     5    16     5   1
     6    17     6   1
     7    18     7   1
     8    19     8   1
     9    20     9   1
    10    14    10   1
    11    21    11   1
    12    12    15   1
    13    22    12   1
    14    16    13   1
    15    13    22   1
    16    17    14   1
    17    15    18   1
    18    20    16   1
    19    19    17   1
    20    18    19   1
    21    20    21   1
    22    21    22   1
    23     1    23   1
    24     2    24   1
    25     3    25   1
    26     4    26   1
    27     5    27   1
    28     6    28   1
    29     7    29   1
    30     8    30   1
    31     9    31   1
    32    10    32   1
    33    10    33   1
    34    11    34   1
    35    11    35   1
    36    12    36   1
    37    12    37   1
    38    13    38   1
    39    13    39   1
    40    14    40   1
    41    15    41   1
    42    16    42   1
    43    17    43   1
    44    18    44   1
    45    19    45   1
    46    20    46   1
    47    21    47   1
@<TRIPOS>SUBSTRUCTURE
     1  DSK     10

