@<TRIPOS>MOLECULE
3l4u_ligand_084
    47    47
SMALL
GAST_HUCK
****
This file was generated by PARSER (from files_GN.cpp)

@<TRIPOS>ATOM
      1 OAA         2.9563  -15.5066  -21.6913 O.3         1 DSK      -0.3924
      2 OAB        -1.8424  -25.0680  -19.6176 O.3         1 DSK      -0.3900
      3 OAC         0.2257  -14.0144  -21.1249 O.3         1 DSK      -0.3869
      4 OAD        -2.1370  -19.1741  -22.0783 O.3         1 DSK      -0.3845
      5 OAE        -0.2417  -23.4556  -17.2096 O.3         1 DSK      -0.3844
      6 OAF        -0.9795  -17.0341  -22.4937 O.3         1 DSK      -0.3865
      7 OAG        -2.1189  -18.4626  -18.4761 O.3         1 DSK      -0.3864
      8 OAH        -0.7999  -16.2383  -18.9025 O.3         1 DSK      -0.3865
      9 OAI         1.3436  -22.0884  -20.1844 O.3         1 DSK      -0.3840
     10 CAJ         1.8270  -15.8253  -20.8752 C.3         1 DSK       0.0727
     11 CAK        -1.5284  -24.2290  -20.7253 C.3         1 DSK       0.0944
     12 CAL        -2.8126  -20.6355  -20.2743 C.3         1 DSK       0.1385
     13 CAM        -0.9339  -21.3073  -18.1459 C.3         1 DSK       0.1386
     14 CAN         0.4940  -15.3588  -21.5500 C.3         1 DSK       0.1065
     15 CAO        -1.8650  -19.4644  -20.7031 C.3         1 DSK       0.1280
     16 CAP         0.1548  -22.3947  -18.0816 C.3         1 DSK       0.1303
     17 CAQ        -0.7825  -16.2496  -21.3232 C.3         1 DSK       0.1114
     18 CAR        -1.9990  -18.1379  -19.8658 C.3         1 DSK       0.1137
     19 CAS        -0.8023  -17.1346  -20.0245 C.3         1 DSK       0.1119
     20 CAT         0.3675  -22.9021  -19.5302 C.3         1 DSK       0.1349
     21 CAU        -0.9927  -22.8391  -20.2945 C.3         1 DSK       0.1711
     22 SAV        -2.2014  -22.0012  -19.2280 S.3         1 DSK       0.0029
     23 H1          3.7365  -15.7813  -21.1516 H           1 DSK       0.2095
     24 H2         -2.6493  -24.6859  -19.2130 H           1 DSK       0.2096
     25 H3         -0.3374  -13.6282  -21.8376 H           1 DSK       0.2100
     26 H4         -1.3406  -19.4929  -22.5637 H           1 DSK       0.2101
     27 H5         -1.0799  -23.8060  -17.5780 H           1 DSK       0.2101
     28 H6         -0.2648  -17.6901  -22.4859 H           1 DSK       0.2100
     29 H7         -2.4967  -17.6640  -18.0460 H           1 DSK       0.2100
     30 H8          0.1408  -15.9701  -18.7774 H           1 DSK       0.2100
     31 H9          2.1935  -22.2796  -19.7283 H           1 DSK       0.2101
     32 H10         1.9407  -15.3231  -19.9072 H           1 DSK       0.0584
     33 H11         1.8155  -16.9074  -20.7036 H           1 DSK       0.0584
     34 H12        -2.4235  -24.1107  -21.3390 H           1 DSK       0.0608
     35 H13        -0.7756  -24.7364  -21.3265 H           1 DSK       0.0608
     36 H14        -3.1963  -21.1368  -21.1688 H           1 DSK       0.0867
     37 H15        -3.6908  -20.2300  -19.7739 H           1 DSK       0.0867
     38 H16        -0.5009  -20.3848  -18.5355 H           1 DSK       0.0867
     39 H17        -1.3572  -21.1051  -17.1591 H           1 DSK       0.0867
     40 H18         0.6643  -15.3015  -22.6376 H           1 DSK       0.0643
     41 H19        -0.8255  -19.8072  -20.6516 H           1 DSK       0.0667
     42 H20         1.0801  -21.9781  -17.6769 H           1 DSK       0.0668
     43 H21        -1.6563  -15.5871  -21.2733 H           1 DSK       0.0647
     44 H22        -2.9272  -17.6347  -20.1504 H           1 DSK       0.0647
     45 H23         0.1298  -17.7151  -19.9800 H           1 DSK       0.0647
     46 H24         0.7709  -23.9172  -19.5054 H           1 DSK       0.0672
     47 H25        -0.8570  -22.2680  -21.2163 H           1 DSK       0.0928
@<TRIPOS>BOND
     1    10     1   1
     2    11     2   1
     3    14     3   1
     4    15     4   1
     5    16     5   1
     6    17     6   1
     7    18     7   1
     8    19     8   1
     9    20     9   1
    10    14    10   1
    11    21    11   1
    12    12    15   1
    13    22    12   1
    14    16    13   1
    15    13    22   1
    16    17    14   1
    17    15    18   1
    18    20    16   1
    19    19    17   1
    20    18    19   1
    21    20    21   1
    22    21    22   1
    23     1    23   1
    24     2    24   1
    25     3    25   1
    26     4    26   1
    27     5    27   1
    28     6    28   1
    29     7    29   1
    30     8    30   1
    31     9    31   1
    32    10    32   1
    33    10    33   1
    34    11    34   1
    35    11    35   1
    36    12    36   1
    37    12    37   1
    38    13    38   1
    39    13    39   1
    40    14    40   1
    41    15    41   1
    42    16    42   1
    43    17    43   1
    44    18    44   1
    45    19    45   1
    46    20    46   1
    47    21    47   1
@<TRIPOS>SUBSTRUCTURE
     1  DSK     10

