@<TRIPOS>MOLECULE
3l4u_ligand_016
    47    47
SMALL
GAST_HUCK
****
This file was generated by PARSER (from files_GN.cpp)

@<TRIPOS>ATOM
      1 OAA        -4.6144  -13.9453  -18.3260 O.3         1 DSK      -0.3924
      2 OAB         1.4257  -22.4265  -14.7155 O.3         1 DSK      -0.3900
      3 OAC        -4.1302  -15.8692  -20.4673 O.3         1 DSK      -0.3869
      4 OAD        -1.1568  -21.2102  -20.9788 O.3         1 DSK      -0.3845
      5 OAE        -0.6445  -24.3605  -16.0128 O.3         1 DSK      -0.3844
      6 OAF        -3.0262  -17.8809  -18.5143 O.3         1 DSK      -0.3865
      7 OAG        -3.2351  -19.1925  -20.8951 O.3         1 DSK      -0.3864
      8 OAH        -0.1666  -17.1743  -20.3935 O.3         1 DSK      -0.3865
      9 OAI        -2.4692  -21.2221  -15.4244 O.3         1 DSK      -0.3840
     10 CAJ        -4.0064  -15.2189  -18.1519 C.3         1 DSK       0.0727
     11 CAK         1.2867  -21.6680  -15.9174 C.3         1 DSK       0.0944
     12 CAL        -1.4282  -20.3443  -18.7112 C.3         1 DSK       0.1385
     13 CAM        -1.7232  -22.9967  -17.7442 C.3         1 DSK       0.1386
     14 CAN        -3.1987  -15.6232  -19.4111 C.3         1 DSK       0.1065
     15 CAO        -1.0433  -20.0222  -20.1839 C.3         1 DSK       0.1280
     16 CAP        -1.6420  -23.3602  -16.2543 C.3         1 DSK       0.1303
     17 CAQ        -2.2760  -16.8651  -19.1840 C.3         1 DSK       0.1114
     18 CAR        -1.8384  -18.8888  -20.9031 C.3         1 DSK       0.1137
     19 CAS        -1.5753  -17.4068  -20.4833 C.3         1 DSK       0.1119
     20 CAT        -1.3071  -22.0501  -15.5037 C.3         1 DSK       0.1349
     21 CAU        -0.1941  -21.3292  -16.3207 C.3         1 DSK       0.1711
     22 SAV        -0.4458  -21.7449  -18.0713 S.3         1 DSK       0.0029
     23 H1         -3.8996  -13.3046  -18.1206 H           1 DSK       0.2095
     24 H2          1.3779  -21.7978  -13.9622 H           1 DSK       0.2096
     25 H3         -3.8426  -15.2822  -21.2036 H           1 DSK       0.2100
     26 H4         -0.7141  -20.9702  -21.8224 H           1 DSK       0.2101
     27 H5          0.1406  -24.0829  -16.5276 H           1 DSK       0.2101
     28 H6         -3.2568  -17.5006  -17.6362 H           1 DSK       0.2100
     29 H7         -3.6553  -18.5314  -21.4818 H           1 DSK       0.2100
     30 H8          0.2174  -17.4790  -21.2571 H           1 DSK       0.2100
     31 H9         -2.7628  -21.2575  -14.4861 H           1 DSK       0.2101
     32 H10        -4.8010  -15.9456  -17.9687 H           1 DSK       0.0584
     33 H11        -3.3589  -15.1775  -17.2702 H           1 DSK       0.0584
     34 H12         1.7874  -22.2508  -16.6965 H           1 DSK       0.0608
     35 H13         1.8500  -20.7403  -15.7890 H           1 DSK       0.0608
     36 H14        -2.4942  -20.5377  -18.6382 H           1 DSK       0.0867
     37 H15        -1.2033  -19.4660  -18.1078 H           1 DSK       0.0867
     38 H16        -2.7280  -22.6335  -17.9732 H           1 DSK       0.0867
     39 H17        -1.5468  -23.8752  -18.3663 H           1 DSK       0.0867
     40 H18        -2.5721  -14.7702  -19.6985 H           1 DSK       0.0643
     41 H19         0.0152  -19.7459  -20.1831 H           1 DSK       0.0667
     42 H20        -2.5982  -23.7613  -15.9019 H           1 DSK       0.0668
     43 H21        -1.4969  -16.5533  -18.4742 H           1 DSK       0.0647
     44 H22        -1.5490  -18.9582  -21.9601 H           1 DSK       0.0647
     45 H23        -1.9005  -16.7981  -21.3299 H           1 DSK       0.0647
     46 H24        -0.9932  -22.2585  -14.4830 H           1 DSK       0.0672
     47 H25        -0.3109  -20.2526  -16.1806 H           1 DSK       0.0928
@<TRIPOS>BOND
     1    10     1   1
     2    11     2   1
     3    14     3   1
     4    15     4   1
     5    16     5   1
     6    17     6   1
     7    18     7   1
     8    19     8   1
     9    20     9   1
    10    14    10   1
    11    21    11   1
    12    12    15   1
    13    22    12   1
    14    16    13   1
    15    13    22   1
    16    17    14   1
    17    15    18   1
    18    20    16   1
    19    19    17   1
    20    18    19   1
    21    20    21   1
    22    21    22   1
    23     1    23   1
    24     2    24   1
    25     3    25   1
    26     4    26   1
    27     5    27   1
    28     6    28   1
    29     7    29   1
    30     8    30   1
    31     9    31   1
    32    10    32   1
    33    10    33   1
    34    11    34   1
    35    11    35   1
    36    12    36   1
    37    12    37   1
    38    13    38   1
    39    13    39   1
    40    14    40   1
    41    15    41   1
    42    16    42   1
    43    17    43   1
    44    18    44   1
    45    19    45   1
    46    20    46   1
    47    21    47   1
@<TRIPOS>SUBSTRUCTURE
     1  DSK     10

