@<TRIPOS>MOLECULE
3l4u_ligand_027
    47    47
SMALL
GAST_HUCK
****
This file was generated by PARSER (from files_GN.cpp)

@<TRIPOS>ATOM
      1 OAA        -1.1108  -15.5990  -17.6222 O.3         1 DSK      -0.3924
      2 OAB        -0.2503  -22.6151  -23.0124 O.3         1 DSK      -0.3900
      3 OAC        -1.0169  -13.6641  -19.4646 O.3         1 DSK      -0.3869
      4 OAD        -3.6586  -16.6759  -20.9072 O.3         1 DSK      -0.3845
      5 OAE        -4.6004  -22.5263  -24.0997 O.3         1 DSK      -0.3844
      6 OAF         1.7020  -15.8200  -20.7559 O.3         1 DSK      -0.3865
      7 OAG        -0.2719  -18.0587  -20.7296 O.3         1 DSK      -0.3864
      8 OAH        -0.2297  -16.1756  -22.8298 O.3         1 DSK      -0.3865
      9 OAI        -3.7457  -22.5133  -20.5278 O.3         1 DSK      -0.3840
     10 CAJ         0.1720  -15.4451  -18.2218 C.3         1 DSK       0.0727
     11 CAK        -1.4452  -21.9997  -23.4800 C.3         1 DSK       0.0944
     12 CAL        -2.9730  -19.0076  -21.1098 C.3         1 DSK       0.1385
     13 CAM        -4.8233  -20.6176  -22.5800 C.3         1 DSK       0.1386
     14 CAN         0.1910  -14.4281  -19.4068 C.3         1 DSK       0.1065
     15 CAO        -2.6042  -17.5108  -21.3910 C.3         1 DSK       0.1280
     16 CAP        -4.7198  -22.1447  -22.7265 C.3         1 DSK       0.1303
     17 CAQ         0.5126  -15.0233  -20.8153 C.3         1 DSK       0.1114
     18 CAR        -1.2516  -17.0208  -20.7760 C.3         1 DSK       0.1137
     19 CAS        -0.6563  -15.7827  -21.5215 C.3         1 DSK       0.1119
     20 CAT        -3.4639  -22.5549  -21.9292 C.3         1 DSK       0.1349
     21 CAU        -2.3393  -21.5437  -22.2860 C.3         1 DSK       0.1711
     22 SAV        -3.1363  -19.9469  -22.6677 S.3         1 DSK       0.0029
     23 H1         -1.2843  -14.7278  -17.2141 H           1 DSK       0.2095
     24 H2          0.3219  -21.8489  -22.7915 H           1 DSK       0.2096
     25 H3         -1.2052  -13.3992  -18.5394 H           1 DSK       0.2100
     26 H4         -3.5097  -15.7881  -21.2954 H           1 DSK       0.2101
     27 H5         -5.4407  -22.2506  -24.5249 H           1 DSK       0.2101
     28 H6          1.6915  -16.3962  -21.5447 H           1 DSK       0.2100
     29 H7         -0.3345  -18.5519  -21.5733 H           1 DSK       0.2100
     30 H8          0.5579  -16.7380  -22.7029 H           1 DSK       0.2100
     31 H9         -4.4213  -23.2096  -20.3802 H           1 DSK       0.2101
     32 H10         0.4943  -16.4352  -18.5384 H           1 DSK       0.0584
     33 H11         0.8659  -15.1169  -17.4387 H           1 DSK       0.0584
     34 H12        -1.9647  -22.7108  -24.1234 H           1 DSK       0.0608
     35 H13        -1.1432  -21.1526  -24.0963 H           1 DSK       0.0608
     36 H14        -3.9027  -19.0551  -20.5443 H           1 DSK       0.0867
     37 H15        -2.2204  -19.4622  -20.4688 H           1 DSK       0.0867
     38 H16        -5.3120  -20.3827  -21.6328 H           1 DSK       0.0867
     39 H17        -5.4290  -20.1938  -23.3834 H           1 DSK       0.0867
     40 H18         0.9762  -13.7025  -19.1897 H           1 DSK       0.0643
     41 H19        -2.5665  -17.3405  -22.4695 H           1 DSK       0.0667
     42 H20        -5.6157  -22.6300  -22.3239 H           1 DSK       0.0668
     43 H21         0.7578  -14.1736  -21.4622 H           1 DSK       0.0647
     44 H22        -1.4538  -16.7470  -19.7396 H           1 DSK       0.0647
     45 H23        -1.4549  -15.0557  -21.6779 H           1 DSK       0.0647
     46 H24        -3.1737  -23.5816  -22.1704 H           1 DSK       0.0672
     47 H25        -1.6803  -21.4253  -21.4223 H           1 DSK       0.0928
@<TRIPOS>BOND
     1    10     1   1
     2    11     2   1
     3    14     3   1
     4    15     4   1
     5    16     5   1
     6    17     6   1
     7    18     7   1
     8    19     8   1
     9    20     9   1
    10    14    10   1
    11    21    11   1
    12    12    15   1
    13    22    12   1
    14    16    13   1
    15    13    22   1
    16    17    14   1
    17    15    18   1
    18    20    16   1
    19    19    17   1
    20    18    19   1
    21    20    21   1
    22    21    22   1
    23     1    23   1
    24     2    24   1
    25     3    25   1
    26     4    26   1
    27     5    27   1
    28     6    28   1
    29     7    29   1
    30     8    30   1
    31     9    31   1
    32    10    32   1
    33    10    33   1
    34    11    34   1
    35    11    35   1
    36    12    36   1
    37    12    37   1
    38    13    38   1
    39    13    39   1
    40    14    40   1
    41    15    41   1
    42    16    42   1
    43    17    43   1
    44    18    44   1
    45    19    45   1
    46    20    46   1
    47    21    47   1
@<TRIPOS>SUBSTRUCTURE
     1  DSK     10

