@<TRIPOS>MOLECULE
3l4u_ligand_066
    47    47
SMALL
GAST_HUCK
****
This file was generated by PARSER (from files_GN.cpp)

@<TRIPOS>ATOM
      1 OAA        -0.0813  -15.4142  -23.5827 O.3         1 DSK      -0.3924
      2 OAB        -0.0762  -20.1266  -16.1376 O.3         1 DSK      -0.3900
      3 OAC         2.3395  -15.5432  -22.6757 O.3         1 DSK      -0.3869
      4 OAD        -1.1628  -17.5495  -21.0551 O.3         1 DSK      -0.3845
      5 OAE        -3.2860  -23.1486  -20.2333 O.3         1 DSK      -0.3844
      6 OAF         2.9139  -15.6451  -19.9098 O.3         1 DSK      -0.3865
      7 OAG        -1.2118  -16.0045  -17.7560 O.3         1 DSK      -0.3864
      8 OAH         0.4143  -13.9456  -19.2351 O.3         1 DSK      -0.3865
      9 OAI        -3.6719  -22.7297  -17.2759 O.3         1 DSK      -0.3840
     10 CAJ         0.0643  -14.7169  -22.3350 C.3         1 DSK       0.0727
     11 CAK        -1.0877  -21.1372  -16.2306 C.3         1 DSK       0.0944
     12 CAL        -1.7488  -18.5557  -18.9229 C.3         1 DSK       0.1385
     13 CAM        -1.8428  -21.1366  -20.1333 C.3         1 DSK       0.1386
     14 CAN         1.4840  -14.9108  -21.7150 C.3         1 DSK       0.1065
     15 CAO        -0.8009  -17.5547  -19.6607 C.3         1 DSK       0.1280
     16 CAP        -2.9936  -21.9549  -19.4915 C.3         1 DSK       0.1303
     17 CAQ         1.5694  -15.7562  -20.4015 C.3         1 DSK       0.1114
     18 CAR        -0.7969  -16.0680  -19.1270 C.3         1 DSK       0.1137
     19 CAS         0.5984  -15.3646  -19.2341 C.3         1 DSK       0.1119
     20 CAT        -2.5599  -22.2704  -18.0432 C.3         1 DSK       0.1349
     21 CAU        -1.9747  -20.9511  -17.4907 C.3         1 DSK       0.1711
     22 SAV        -0.9724  -20.2121  -18.8267 S.3         1 DSK       0.0029
     23 H1         -0.6904  -14.8378  -24.0786 H           1 DSK       0.2095
     24 H2          0.4729  -20.2419  -16.9451 H           1 DSK       0.2096
     25 H3          1.9344  -16.4186  -22.8437 H           1 DSK       0.2100
     26 H4         -0.4324  -18.0018  -21.5405 H           1 DSK       0.2101
     27 H5         -2.4613  -23.6771  -20.1968 H           1 DSK       0.2101
     28 H6          3.5254  -15.8470  -20.6530 H           1 DSK       0.2100
     29 H7         -1.0456  -15.0789  -17.4794 H           1 DSK       0.2100
     30 H8          0.1300  -13.6948  -18.3330 H           1 DSK       0.2100
     31 H9         -3.2995  -22.9867  -16.4089 H           1 DSK       0.2101
     32 H10        -0.7124  -15.0417  -21.6325 H           1 DSK       0.0584
     33 H11        -0.0880  -13.6391  -22.5101 H           1 DSK       0.0584
     34 H12        -1.7076  -21.0674  -15.3270 H           1 DSK       0.0608
     35 H13        -0.5950  -22.1184  -16.2457 H           1 DSK       0.0608
     36 H14        -2.7387  -18.5979  -19.4130 H           1 DSK       0.0867
     37 H15        -1.8958  -18.2073  -17.8886 H           1 DSK       0.0867
     38 H16        -2.2141  -20.4849  -20.9347 H           1 DSK       0.0867
     39 H17        -1.1092  -21.8279  -20.5689 H           1 DSK       0.0867
     40 H18         1.9265  -13.9233  -21.5124 H           1 DSK       0.0643
     41 H19         0.2283  -17.9379  -19.5788 H           1 DSK       0.0667
     42 H20        -3.8998  -21.3349  -19.4801 H           1 DSK       0.0668
     43 H21         1.4224  -16.8063  -20.6620 H           1 DSK       0.0647
     44 H22        -1.5468  -15.5261  -19.7019 H           1 DSK       0.0647
     45 H23         1.1117  -15.5911  -18.2965 H           1 DSK       0.0647
     46 H24        -1.7910  -23.0487  -18.0593 H           1 DSK       0.0672
     47 H25        -2.8184  -20.2986  -17.2213 H           1 DSK       0.0928
@<TRIPOS>BOND
     1    10     1   1
     2    11     2   1
     3    14     3   1
     4    15     4   1
     5    16     5   1
     6    17     6   1
     7    18     7   1
     8    19     8   1
     9    20     9   1
    10    14    10   1
    11    21    11   1
    12    12    15   1
    13    22    12   1
    14    16    13   1
    15    13    22   1
    16    17    14   1
    17    15    18   1
    18    20    16   1
    19    19    17   1
    20    18    19   1
    21    20    21   1
    22    21    22   1
    23     1    23   1
    24     2    24   1
    25     3    25   1
    26     4    26   1
    27     5    27   1
    28     6    28   1
    29     7    29   1
    30     8    30   1
    31     9    31   1
    32    10    32   1
    33    10    33   1
    34    11    34   1
    35    11    35   1
    36    12    36   1
    37    12    37   1
    38    13    38   1
    39    13    39   1
    40    14    40   1
    41    15    41   1
    42    16    42   1
    43    17    43   1
    44    18    44   1
    45    19    45   1
    46    20    46   1
    47    21    47   1
@<TRIPOS>SUBSTRUCTURE
     1  DSK     10

