@<TRIPOS>MOLECULE
3l4u_ligand_060
    47    47
SMALL
GAST_HUCK
****
This file was generated by PARSER (from files_GN.cpp)

@<TRIPOS>ATOM
      1 OAA         0.1129  -13.8368  -19.2700 O.3         1 DSK      -0.3924
      2 OAB        -3.4261  -24.6470  -20.0070 O.3         1 DSK      -0.3900
      3 OAC         1.7762  -15.2084  -21.0669 O.3         1 DSK      -0.3869
      4 OAD        -1.0527  -18.0591  -19.1813 O.3         1 DSK      -0.3845
      5 OAE         0.7808  -22.6384  -19.5386 O.3         1 DSK      -0.3844
      6 OAF         0.0151  -15.4211  -23.0292 O.3         1 DSK      -0.3865
      7 OAG        -2.9131  -15.7228  -19.9055 O.3         1 DSK      -0.3864
      8 OAH        -1.2633  -17.7825  -22.5147 O.3         1 DSK      -0.3865
      9 OAI        -1.3808  -22.2662  -22.1053 O.3         1 DSK      -0.3840
     10 CAJ         0.2054  -15.2545  -19.2590 C.3         1 DSK       0.0727
     11 CAK        -3.3455  -23.4539  -19.2362 C.3         1 DSK       0.0944
     12 CAL        -2.6667  -19.4955  -20.2955 C.3         1 DSK       0.1385
     13 CAM        -0.9258  -21.0823  -18.7276 C.3         1 DSK       0.1386
     14 CAN         0.5408  -15.8084  -20.6672 C.3         1 DSK       0.1065
     15 CAO        -2.3839  -18.0939  -19.6885 C.3         1 DSK       0.1280
     16 CAP        -0.2866  -21.7808  -19.9472 C.3         1 DSK       0.1303
     17 CAQ        -0.5864  -15.5444  -21.7343 C.3         1 DSK       0.1114
     18 CAR        -2.6839  -16.9138  -20.6622 C.3         1 DSK       0.1137
     19 CAS        -1.7321  -16.5981  -21.8749 C.3         1 DSK       0.1119
     20 CAT        -1.3882  -22.5736  -20.7065 C.3         1 DSK       0.1349
     21 CAU        -2.7847  -22.2788  -20.0870 C.3         1 DSK       0.1711
     22 SAV        -2.6830  -20.8053  -19.0323 S.3         1 DSK       0.0029
     23 H1         -0.2083  -13.5994  -18.3763 H           1 DSK       0.2095
     24 H2         -4.1532  -24.4901  -20.6474 H           1 DSK       0.2096
     25 H3          2.1753  -14.8601  -20.2383 H           1 DSK       0.2100
     26 H4         -1.1515  -17.9815  -18.1976 H           1 DSK       0.2101
     27 H5          1.4618  -22.0463  -19.1539 H           1 DSK       0.2101
     28 H6         -0.6746  -15.0173  -23.6040 H           1 DSK       0.2100
     29 H7         -3.1100  -15.0214  -20.5772 H           1 DSK       0.2100
     30 H8         -0.2912  -17.8054  -22.3867 H           1 DSK       0.2100
     31 H9         -0.8650  -21.4386  -22.2112 H           1 DSK       0.2101
     32 H10        -0.7390  -15.6542  -18.8861 H           1 DSK       0.0584
     33 H11         0.9890  -15.5301  -18.5584 H           1 DSK       0.0584
     34 H12        -2.7056  -23.6397  -18.3699 H           1 DSK       0.0608
     35 H13        -4.3505  -23.2154  -18.8796 H           1 DSK       0.0608
     36 H14        -1.9323  -19.7238  -21.0721 H           1 DSK       0.0867
     37 H15        -3.6550  -19.4883  -20.7644 H           1 DSK       0.0867
     38 H16        -0.4238  -20.1399  -18.5019 H           1 DSK       0.0867
     39 H17        -0.8498  -21.7251  -17.8484 H           1 DSK       0.0867
     40 H18         0.7266  -16.8827  -20.5969 H           1 DSK       0.0643
     41 H19        -3.0624  -17.9691  -18.8434 H           1 DSK       0.0667
     42 H20         0.1465  -21.0213  -20.6039 H           1 DSK       0.0668
     43 H21        -1.0337  -14.5727  -21.5279 H           1 DSK       0.0647
     44 H22        -3.6596  -17.1460  -21.0948 H           1 DSK       0.0647
     45 H23        -2.4000  -16.1620  -22.6266 H           1 DSK       0.0647
     46 H24        -1.1699  -23.6438  -20.6477 H           1 DSK       0.0672
     47 H25        -3.5165  -22.0913  -20.8764 H           1 DSK       0.0928
@<TRIPOS>BOND
     1    10     1   1
     2    11     2   1
     3    14     3   1
     4    15     4   1
     5    16     5   1
     6    17     6   1
     7    18     7   1
     8    19     8   1
     9    20     9   1
    10    14    10   1
    11    21    11   1
    12    12    15   1
    13    22    12   1
    14    16    13   1
    15    13    22   1
    16    17    14   1
    17    15    18   1
    18    20    16   1
    19    19    17   1
    20    18    19   1
    21    20    21   1
    22    21    22   1
    23     1    23   1
    24     2    24   1
    25     3    25   1
    26     4    26   1
    27     5    27   1
    28     6    28   1
    29     7    29   1
    30     8    30   1
    31     9    31   1
    32    10    32   1
    33    10    33   1
    34    11    34   1
    35    11    35   1
    36    12    36   1
    37    12    37   1
    38    13    38   1
    39    13    39   1
    40    14    40   1
    41    15    41   1
    42    16    42   1
    43    17    43   1
    44    18    44   1
    45    19    45   1
    46    20    46   1
    47    21    47   1
@<TRIPOS>SUBSTRUCTURE
     1  DSK     10

