@<TRIPOS>MOLECULE
3l4u_ligand_077
    47    47
SMALL
GAST_HUCK
****
This file was generated by PARSER (from files_GN.cpp)

@<TRIPOS>ATOM
      1 OAA        -2.7156  -25.2431  -22.2294 O.3         1 DSK      -0.3924
      2 OAB        -4.5199  -14.2115  -18.8028 O.3         1 DSK      -0.3900
      3 OAC        -0.4466  -22.4080  -21.6524 O.3         1 DSK      -0.3869
      4 OAD        -2.3030  -19.0234  -22.6639 O.3         1 DSK      -0.3845
      5 OAE         0.6000  -15.8534  -17.7121 O.3         1 DSK      -0.3844
      6 OAF        -2.9219  -23.1176  -24.2572 O.3         1 DSK      -0.3865
      7 OAG        -4.1515  -20.9383  -20.1395 O.3         1 DSK      -0.3864
      8 OAH        -4.4807  -22.7030  -22.0450 O.3         1 DSK      -0.3865
      9 OAI        -2.2620  -15.3208  -16.9619 O.3         1 DSK      -0.3840
     10 CAJ        -1.8619  -24.3472  -21.5294 C.3         1 DSK       0.0727
     11 CAK        -3.7370  -14.8067  -19.8379 C.3         1 DSK       0.0944
     12 CAL        -2.2101  -18.5592  -20.2835 C.3         1 DSK       0.1385
     13 CAM        -0.3339  -16.5378  -19.9006 C.3         1 DSK       0.1386
     14 CAN        -1.3165  -23.2161  -22.4359 C.3         1 DSK       0.1065
     15 CAO        -2.9843  -19.2615  -21.4292 C.3         1 DSK       0.1280
     16 CAP        -0.5540  -16.3673  -18.3892 C.3         1 DSK       0.1303
     17 CAQ        -2.3685  -22.3370  -23.1941 C.3         1 DSK       0.1114
     18 CAR        -3.1577  -20.8003  -21.1620 C.3         1 DSK       0.1137
     19 CAS        -3.5495  -21.6665  -22.3991 C.3         1 DSK       0.1119
     20 CAT        -1.7605  -15.4111  -18.2926 C.3         1 DSK       0.1349
     21 CAU        -2.8340  -15.9425  -19.2842 C.3         1 DSK       0.1711
     22 SAV        -1.9620  -16.7836  -20.6576 S.3         1 DSK       0.0029
     23 H1         -2.1377  -25.7051  -22.8736 H           1 DSK       0.2095
     24 H2         -3.9009  -13.6156  -18.3259 H           1 DSK       0.2096
     25 H3         -0.1348  -21.6820  -22.2327 H           1 DSK       0.2100
     26 H4         -1.4264  -19.4380  -22.5489 H           1 DSK       0.2101
     27 H5          0.3774  -14.9390  -17.4383 H           1 DSK       0.2101
     28 H6         -3.6207  -23.6702  -23.8549 H           1 DSK       0.2100
     29 H7         -4.9910  -20.6280  -20.5480 H           1 DSK       0.2100
     30 H8         -5.3687  -22.2773  -22.0823 H           1 DSK       0.2100
     31 H9         -1.6578  -14.6805  -16.5435 H           1 DSK       0.2101
     32 H10        -1.0286  -24.9223  -21.1157 H           1 DSK       0.0584
     33 H11        -2.4143  -23.9190  -20.6893 H           1 DSK       0.0584
     34 H12        -3.1285  -14.0270  -20.2991 H           1 DSK       0.0608
     35 H13        -4.4133  -15.2103  -20.5933 H           1 DSK       0.0608
     36 H14        -1.2445  -19.0609  -20.1721 H           1 DSK       0.0867
     37 H15        -2.7527  -18.6939  -19.3457 H           1 DSK       0.0867
     38 H16         0.3571  -17.3588  -20.1113 H           1 DSK       0.0867
     39 H17         0.0941  -15.6170  -20.3119 H           1 DSK       0.0867
     40 H18        -0.6715  -23.6853  -23.1850 H           1 DSK       0.0643
     41 H19        -3.9764  -18.8116  -21.5229 H           1 DSK       0.0667
     42 H20        -0.8014  -17.3340  -17.9388 H           1 DSK       0.0668
     43 H21        -1.8121  -21.5492  -23.7088 H           1 DSK       0.0647
     44 H22        -2.2398  -21.2065  -20.7311 H           1 DSK       0.0647
     45 H23        -4.0872  -21.0202  -23.1036 H           1 DSK       0.0647
     46 H24        -1.4394  -14.4077  -18.6025 H           1 DSK       0.0672
     47 H25        -3.4826  -16.6500  -18.7594 H           1 DSK       0.0928
@<TRIPOS>BOND
     1    10     1   1
     2    11     2   1
     3    14     3   1
     4    15     4   1
     5    16     5   1
     6    17     6   1
     7    18     7   1
     8    19     8   1
     9    20     9   1
    10    14    10   1
    11    21    11   1
    12    12    15   1
    13    22    12   1
    14    16    13   1
    15    13    22   1
    16    17    14   1
    17    15    18   1
    18    20    16   1
    19    19    17   1
    20    18    19   1
    21    20    21   1
    22    21    22   1
    23     1    23   1
    24     2    24   1
    25     3    25   1
    26     4    26   1
    27     5    27   1
    28     6    28   1
    29     7    29   1
    30     8    30   1
    31     9    31   1
    32    10    32   1
    33    10    33   1
    34    11    34   1
    35    11    35   1
    36    12    36   1
    37    12    37   1
    38    13    38   1
    39    13    39   1
    40    14    40   1
    41    15    41   1
    42    16    42   1
    43    17    43   1
    44    18    44   1
    45    19    45   1
    46    20    46   1
    47    21    47   1
@<TRIPOS>SUBSTRUCTURE
     1  DSK     10

