@<TRIPOS>MOLECULE
3l4u_ligand_010
    47    47
SMALL
GAST_HUCK
****
This file was generated by PARSER (from files_GN.cpp)

@<TRIPOS>ATOM
      1 OAA         1.0180  -15.3951  -17.1733 O.3         1 DSK      -0.3924
      2 OAB        -2.6083  -21.0582  -23.0972 O.3         1 DSK      -0.3900
      3 OAC        -1.2471  -13.8869  -19.4131 O.3         1 DSK      -0.3869
      4 OAD        -1.8582  -18.5107  -22.4000 O.3         1 DSK      -0.3845
      5 OAE        -1.6463  -22.5070  -17.2573 O.3         1 DSK      -0.3844
      6 OAF         1.3436  -16.2676  -20.4104 O.3         1 DSK      -0.3865
      7 OAG        -2.5723  -15.7849  -20.2369 O.3         1 DSK      -0.3864
      8 OAH        -0.0447  -15.8993  -22.9206 O.3         1 DSK      -0.3865
      9 OAI        -0.0606  -22.8459  -19.7933 O.3         1 DSK      -0.3840
     10 CAJ        -0.0513  -15.6027  -18.0929 C.3         1 DSK       0.0727
     11 CAK        -2.1636  -22.0185  -22.1357 C.3         1 DSK       0.0944
     12 CAL        -2.1309  -18.6211  -19.9262 C.3         1 DSK       0.1385
     13 CAM        -2.9382  -20.8368  -18.5156 C.3         1 DSK       0.1386
     14 CAN         0.0086  -14.5617  -19.2583 C.3         1 DSK       0.1065
     15 CAO        -1.5095  -17.8850  -21.1632 C.3         1 DSK       0.1280
     16 CAP        -1.6047  -21.5956  -18.3543 C.3         1 DSK       0.1303
     17 CAQ         0.4849  -15.1425  -20.6300 C.3         1 DSK       0.1114
     18 CAR        -1.8484  -16.3605  -21.3291 C.3         1 DSK       0.1137
     19 CAS        -0.6337  -15.4336  -21.6986 C.3         1 DSK       0.1119
     20 CAT        -1.3988  -22.3352  -19.6896 C.3         1 DSK       0.1349
     21 CAU        -1.7192  -21.3156  -20.8224 C.3         1 DSK       0.1711
     22 SAV        -3.0217  -20.1936  -20.2099 S.3         1 DSK       0.0029
     23 H1          0.8268  -14.5046  -16.8167 H           1 DSK       0.2095
     24 H2         -2.5461  -21.4942  -23.9775 H           1 DSK       0.2096
     25 H3         -1.4600  -13.5886  -18.4971 H           1 DSK       0.2100
     26 H4         -1.2494  -19.2655  -22.4731 H           1 DSK       0.2101
     27 H5         -1.7427  -21.9342  -16.4708 H           1 DSK       0.2101
     28 H6          1.5324  -16.6558  -21.2988 H           1 DSK       0.2100
     29 H7         -2.9606  -14.9782  -20.6325 H           1 DSK       0.2100
     30 H8          0.4566  -16.7029  -22.6810 H           1 DSK       0.2100
     31 H9         -0.0460  -23.3396  -20.6442 H           1 DSK       0.2101
     32 H10        -0.9931  -15.5091  -17.5380 H           1 DSK       0.0584
     33 H11         0.0153  -16.6296  -18.4609 H           1 DSK       0.0584
     34 H12        -1.3241  -22.5819  -22.5527 H           1 DSK       0.0608
     35 H13        -2.9900  -22.7152  -21.9346 H           1 DSK       0.0608
     36 H14        -2.8769  -17.9846  -19.4452 H           1 DSK       0.0867
     37 H15        -1.3355  -18.7720  -19.1888 H           1 DSK       0.0867
     38 H16        -3.0243  -20.0467  -17.7676 H           1 DSK       0.0867
     39 H17        -3.7733  -21.5312  -18.3831 H           1 DSK       0.0867
     40 H18         0.7260  -13.7822  -18.9741 H           1 DSK       0.0643
     41 H19        -0.4236  -17.9913  -21.0753 H           1 DSK       0.0667
     42 H20        -0.7830  -20.8934  -18.1965 H           1 DSK       0.0668
     43 H21         1.1264  -14.3806  -21.0930 H           1 DSK       0.0647
     44 H22        -2.5574  -16.2890  -22.1677 H           1 DSK       0.0647
     45 H23        -1.0594  -14.4597  -21.9519 H           1 DSK       0.0647
     46 H24        -2.0956  -23.1862  -19.7354 H           1 DSK       0.0672
     47 H25        -0.8108  -20.7360  -21.0253 H           1 DSK       0.0928
@<TRIPOS>BOND
     1    10     1   1
     2    11     2   1
     3    14     3   1
     4    15     4   1
     5    16     5   1
     6    17     6   1
     7    18     7   1
     8    19     8   1
     9    20     9   1
    10    14    10   1
    11    21    11   1
    12    12    15   1
    13    22    12   1
    14    16    13   1
    15    13    22   1
    16    17    14   1
    17    15    18   1
    18    20    16   1
    19    19    17   1
    20    18    19   1
    21    20    21   1
    22    21    22   1
    23     1    23   1
    24     2    24   1
    25     3    25   1
    26     4    26   1
    27     5    27   1
    28     6    28   1
    29     7    29   1
    30     8    30   1
    31     9    31   1
    32    10    32   1
    33    10    33   1
    34    11    34   1
    35    11    35   1
    36    12    36   1
    37    12    37   1
    38    13    38   1
    39    13    39   1
    40    14    40   1
    41    15    41   1
    42    16    42   1
    43    17    43   1
    44    18    44   1
    45    19    45   1
    46    20    46   1
    47    21    47   1
@<TRIPOS>SUBSTRUCTURE
     1  DSK     10

