@<TRIPOS>MOLECULE
3l4u_ligand_035
    47    47
SMALL
GAST_HUCK
****
This file was generated by PARSER (from files_GN.cpp)

@<TRIPOS>ATOM
      1 OAA         3.6374  -17.3352  -21.4465 O.3         1 DSK      -0.3924
      2 OAB         0.2424  -21.3821  -20.2114 O.3         1 DSK      -0.3900
      3 OAC         3.0531  -14.1658  -21.5072 O.3         1 DSK      -0.3869
      4 OAD        -0.8217  -16.0383  -17.6364 O.3         1 DSK      -0.3845
      5 OAE        -3.2263  -19.2265  -23.3790 O.3         1 DSK      -0.3844
      6 OAF        -0.0197  -15.8206  -22.3666 O.3         1 DSK      -0.3865
      7 OAG        -2.0224  -13.9074  -19.8741 O.3         1 DSK      -0.3864
      8 OAH         0.5665  -13.7032  -19.4389 O.3         1 DSK      -0.3865
      9 OAI        -3.5115  -21.4860  -21.3546 O.3         1 DSK      -0.3840
     10 CAJ         2.7221  -16.4718  -20.7816 C.3         1 DSK       0.0727
     11 CAK        -0.9466  -21.2470  -19.4369 C.3         1 DSK       0.0944
     12 CAL        -2.2044  -17.5477  -18.9826 C.3         1 DSK       0.1385
     13 CAM        -1.8590  -18.1737  -21.6850 C.3         1 DSK       0.1386
     14 CAN         2.2274  -15.3177  -21.6986 C.3         1 DSK       0.1065
     15 CAO        -1.7910  -16.0663  -18.6816 C.3         1 DSK       0.1280
     16 CAP        -2.9829  -19.1843  -21.9770 C.3         1 DSK       0.1303
     17 CAQ         0.7221  -14.9395  -21.5241 C.3         1 DSK       0.1114
     18 CAR        -1.3493  -15.1836  -19.9044 C.3         1 DSK       0.1137
     19 CAS         0.1975  -14.9469  -20.0490 C.3         1 DSK       0.1119
     20 CAT        -2.4712  -20.5162  -21.4061 C.3         1 DSK       0.1349
     21 CAU        -1.9188  -20.1747  -19.9959 C.3         1 DSK       0.1711
     22 SAV        -1.1117  -18.5330  -20.0684 S.3         1 DSK       0.0029
     23 H1          4.4244  -16.7828  -21.6069 H           1 DSK       0.2095
     24 H2         -0.0011  -21.9340  -20.9848 H           1 DSK       0.2096
     25 H3          3.9733  -14.5051  -21.4113 H           1 DSK       0.2100
     26 H4         -0.8156  -15.1246  -17.2993 H           1 DSK       0.2101
     27 H5         -3.8550  -19.9547  -23.5377 H           1 DSK       0.2101
     28 H6          0.3760  -16.7055  -22.2282 H           1 DSK       0.2100
     29 H7         -2.6683  -13.9684  -20.6332 H           1 DSK       0.2100
     30 H8          0.2217  -13.7208  -18.5281 H           1 DSK       0.2100
     31 H9         -3.0686  -22.3160  -21.0787 H           1 DSK       0.2101
     32 H10         3.2150  -16.0497  -19.9039 H           1 DSK       0.0584
     33 H11         1.8958  -17.0982  -20.4352 H           1 DSK       0.0584
     34 H12        -0.6562  -20.9673  -18.4214 H           1 DSK       0.0608
     35 H13        -1.4464  -22.2148  -19.3870 H           1 DSK       0.0608
     36 H14        -3.2170  -17.5469  -19.3980 H           1 DSK       0.0867
     37 H15        -2.2635  -18.0637  -18.0240 H           1 DSK       0.0867
     38 H16        -2.2469  -17.1584  -21.7504 H           1 DSK       0.0867
     39 H17        -1.0653  -18.2883  -22.4338 H           1 DSK       0.0867
     40 H18         2.3600  -15.6339  -22.7363 H           1 DSK       0.0643
     41 H19        -2.6868  -15.6020  -18.2479 H           1 DSK       0.0667
     42 H20        -3.8992  -18.8812  -21.4697 H           1 DSK       0.0668
     43 H21         0.5619  -13.9372  -21.9392 H           1 DSK       0.0647
     44 H22        -1.7272  -15.6722  -20.8005 H           1 DSK       0.0647
     45 H23         0.7030  -15.7379  -19.5087 H           1 DSK       0.0647
     46 H24        -1.6802  -20.9003  -22.0564 H           1 DSK       0.0672
     47 H25        -2.7763  -20.1321  -19.3129 H           1 DSK       0.0928
@<TRIPOS>BOND
     1    10     1   1
     2    11     2   1
     3    14     3   1
     4    15     4   1
     5    16     5   1
     6    17     6   1
     7    18     7   1
     8    19     8   1
     9    20     9   1
    10    14    10   1
    11    21    11   1
    12    12    15   1
    13    22    12   1
    14    16    13   1
    15    13    22   1
    16    17    14   1
    17    15    18   1
    18    20    16   1
    19    19    17   1
    20    18    19   1
    21    20    21   1
    22    21    22   1
    23     1    23   1
    24     2    24   1
    25     3    25   1
    26     4    26   1
    27     5    27   1
    28     6    28   1
    29     7    29   1
    30     8    30   1
    31     9    31   1
    32    10    32   1
    33    10    33   1
    34    11    34   1
    35    11    35   1
    36    12    36   1
    37    12    37   1
    38    13    38   1
    39    13    39   1
    40    14    40   1
    41    15    41   1
    42    16    42   1
    43    17    43   1
    44    18    44   1
    45    19    45   1
    46    20    46   1
    47    21    47   1
@<TRIPOS>SUBSTRUCTURE
     1  DSK     10

