@<TRIPOS>MOLECULE
3l4u_ligand_008
    47    47
SMALL
GAST_HUCK
****
This file was generated by PARSER (from files_GN.cpp)

@<TRIPOS>ATOM
      1 OAA         0.3977  -21.8373  -25.2561 O.3         1 DSK      -0.3924
      2 OAB        -3.7283  -15.1929  -18.4167 O.3         1 DSK      -0.3900
      3 OAC        -0.5286  -22.5078  -22.3870 O.3         1 DSK      -0.3869
      4 OAD        -3.3875  -20.0704  -19.6316 O.3         1 DSK      -0.3845
      5 OAE         0.8836  -14.8745  -20.5545 O.3         1 DSK      -0.3844
      6 OAF        -2.8471  -23.9005  -22.8212 O.3         1 DSK      -0.3865
      7 OAG        -2.8435  -19.5083  -23.2358 O.3         1 DSK      -0.3864
      8 OAH        -4.1995  -22.3481  -21.2645 O.3         1 DSK      -0.3865
      9 OAI         0.1805  -15.7658  -17.7703 O.3         1 DSK      -0.3840
     10 CAJ        -0.6277  -22.7219  -24.7679 C.3         1 DSK       0.0727
     11 CAK        -3.0362  -16.3269  -17.8966 C.3         1 DSK       0.0944
     12 CAL        -1.5646  -18.8184  -20.7354 C.3         1 DSK       0.1385
     13 CAM        -1.0848  -16.1673  -21.2326 C.3         1 DSK       0.1386
     14 CAN        -1.3161  -22.1138  -23.5047 C.3         1 DSK       0.1065
     15 CAO        -2.5474  -20.0208  -20.7936 C.3         1 DSK       0.1280
     16 CAP         0.0353  -15.9640  -20.1965 C.3         1 DSK       0.1303
     17 CAQ        -2.7951  -22.5568  -23.3270 C.3         1 DSK       0.1114
     18 CAR        -3.4144  -20.1690  -22.1025 C.3         1 DSK       0.1137
     19 CAS        -3.7827  -21.6612  -22.4701 C.3         1 DSK       0.1119
     20 CAT        -0.7062  -15.7068  -18.8782 C.3         1 DSK       0.1349
     21 CAU        -1.8364  -16.7641  -18.7799 C.3         1 DSK       0.1711
     22 SAV        -2.3722  -17.1965  -20.4769 S.3         1 DSK       0.0029
     23 H1          1.1950  -22.0306  -24.6980 H           1 DSK       0.2095
     24 H2         -3.2304  -14.3997  -18.0943 H           1 DSK       0.2096
     25 H3          0.0130  -21.6988  -22.2177 H           1 DSK       0.2100
     26 H4         -3.2609  -19.1867  -19.1898 H           1 DSK       0.2101
     27 H5          1.4296  -14.7089  -19.7595 H           1 DSK       0.2101
     28 H6         -2.4443  -24.4651  -23.5305 H           1 DSK       0.2100
     29 H7         -3.1009  -20.0659  -24.0026 H           1 DSK       0.2100
     30 H8         -4.9690  -21.8249  -20.9390 H           1 DSK       0.2100
     31 H9          0.1197  -14.8797  -17.3558 H           1 DSK       0.2101
     32 H10        -0.1789  -23.7050  -24.5370 H           1 DSK       0.0584
     33 H11        -1.3442  -22.8647  -25.5861 H           1 DSK       0.0584
     34 H12        -3.7475  -17.1440  -17.8156 H           1 DSK       0.0608
     35 H13        -2.6844  -16.0893  -16.8930 H           1 DSK       0.0608
     36 H14        -1.0243  -18.7919  -21.6848 H           1 DSK       0.0867
     37 H15        -0.8184  -19.0165  -19.9559 H           1 DSK       0.0867
     38 H16        -0.6922  -16.5967  -22.1607 H           1 DSK       0.0867
     39 H17        -1.5301  -15.1989  -21.4775 H           1 DSK       0.0867
     40 H18        -1.3180  -21.0268  -23.6174 H           1 DSK       0.0643
     41 H19        -1.9456  -20.9222  -20.6980 H           1 DSK       0.0667
     42 H20         0.6474  -16.8650  -20.1221 H           1 DSK       0.0668
     43 H21        -3.2370  -22.6092  -24.3332 H           1 DSK       0.0647
     44 H22        -4.3567  -19.6479  -21.9074 H           1 DSK       0.0647
     45 H23        -4.7101  -21.5830  -23.0876 H           1 DSK       0.0647
     46 H24        -1.1289  -14.7051  -18.9189 H           1 DSK       0.0672
     47 H25        -1.4232  -17.6654  -18.3078 H           1 DSK       0.0928
@<TRIPOS>BOND
     1    10     1   1
     2    11     2   1
     3    14     3   1
     4    15     4   1
     5    16     5   1
     6    17     6   1
     7    18     7   1
     8    19     8   1
     9    20     9   1
    10    14    10   1
    11    21    11   1
    12    12    15   1
    13    22    12   1
    14    16    13   1
    15    13    22   1
    16    17    14   1
    17    15    18   1
    18    20    16   1
    19    19    17   1
    20    18    19   1
    21    20    21   1
    22    21    22   1
    23     1    23   1
    24     2    24   1
    25     3    25   1
    26     4    26   1
    27     5    27   1
    28     6    28   1
    29     7    29   1
    30     8    30   1
    31     9    31   1
    32    10    32   1
    33    10    33   1
    34    11    34   1
    35    11    35   1
    36    12    36   1
    37    12    37   1
    38    13    38   1
    39    13    39   1
    40    14    40   1
    41    15    41   1
    42    16    42   1
    43    17    43   1
    44    18    44   1
    45    19    45   1
    46    20    46   1
    47    21    47   1
@<TRIPOS>SUBSTRUCTURE
     1  DSK     10

