@<TRIPOS>MOLECULE
3l4u_ligand_007
    47    47
SMALL
GAST_HUCK
****
This file was generated by PARSER (from files_GN.cpp)

@<TRIPOS>ATOM
      1 OAA        -1.1994  -23.5207  -25.1300 O.3         1 DSK      -0.3924
      2 OAB        -0.3117  -16.1554  -22.7884 O.3         1 DSK      -0.3900
      3 OAC        -4.0899  -25.2568  -23.6550 O.3         1 DSK      -0.3869
      4 OAD        -3.3877  -20.1580  -19.9127 O.3         1 DSK      -0.3845
      5 OAE        -0.2014  -15.9108  -17.6661 O.3         1 DSK      -0.3844
      6 OAF        -4.7796  -23.0567  -22.3165 O.3         1 DSK      -0.3865
      7 OAG        -2.6686  -19.7348  -23.4775 O.3         1 DSK      -0.3864
      8 OAH        -1.3717  -22.0028  -23.0675 O.3         1 DSK      -0.3865
      9 OAI        -2.7390  -13.9810  -19.3636 O.3         1 DSK      -0.3840
     10 CAJ        -2.4092  -24.2666  -25.0436 C.3         1 DSK       0.0727
     11 CAK        -0.3984  -15.2687  -21.6700 C.3         1 DSK       0.0944
     12 CAL        -2.6461  -18.1781  -21.1178 C.3         1 DSK       0.1385
     13 CAM        -2.1514  -17.0528  -18.5813 C.3         1 DSK       0.1386
     14 CAN        -3.0651  -24.2558  -23.6322 C.3         1 DSK       0.1065
     15 CAO        -2.6083  -19.7268  -21.0337 C.3         1 DSK       0.1280
     16 CAP        -1.5406  -15.7140  -18.1342 C.3         1 DSK       0.1303
     17 CAQ        -3.6553  -22.8705  -23.1847 C.3         1 DSK       0.1114
     18 CAR        -3.1189  -20.4514  -22.3233 C.3         1 DSK       0.1137
     19 CAS        -2.6499  -21.9411  -22.4315 C.3         1 DSK       0.1119
     20 CAT        -1.5538  -14.7871  -19.3801 C.3         1 DSK       0.1349
     21 CAU        -1.5169  -15.6733  -20.6680 C.3         1 DSK       0.1711
     22 SAV        -1.3172  -17.4034  -20.1441 S.3         1 DSK       0.0029
     23 H1         -1.4720  -22.5995  -25.3334 H           1 DSK       0.2095
     24 H2          0.2711  -16.8858  -22.4998 H           1 DSK       0.2096
     25 H3         -3.6216  -26.1128  -23.7643 H           1 DSK       0.2100
     26 H4         -2.9819  -19.7290  -19.1265 H           1 DSK       0.2101
     27 H5          0.0729  -15.0195  -17.3520 H           1 DSK       0.2101
     28 H6         -5.4631  -23.5211  -22.8546 H           1 DSK       0.2100
     29 H7         -2.9404  -20.2635  -24.2509 H           1 DSK       0.2100
     30 H8         -0.8449  -21.2687  -22.6917 H           1 DSK       0.2100
     31 H9         -2.5514  -13.2715  -18.7173 H           1 DSK       0.2101
     32 H10        -2.1667  -25.2970  -25.3177 H           1 DSK       0.0584
     33 H11        -3.1125  -23.8816  -25.7848 H           1 DSK       0.0584
     34 H12        -0.6095  -14.2674  -22.0526 H           1 DSK       0.0608
     35 H13         0.5714  -15.2493  -21.1668 H           1 DSK       0.0608
     36 H14        -3.6329  -17.8060  -20.8345 H           1 DSK       0.0867
     37 H15        -2.4625  -17.8728  -22.1458 H           1 DSK       0.0867
     38 H16        -3.2346  -16.9412  -18.7005 H           1 DSK       0.0867
     39 H17        -1.9485  -17.8492  -17.8605 H           1 DSK       0.0867
     40 H18        -2.3280  -24.5950  -22.8982 H           1 DSK       0.0643
     41 H19        -1.5750  -20.0324  -20.8520 H           1 DSK       0.0667
     42 H20        -2.1246  -15.2890  -17.3081 H           1 DSK       0.0668
     43 H21        -4.0382  -22.3523  -24.0671 H           1 DSK       0.0647
     44 H22        -4.2120  -20.4057  -22.3198 H           1 DSK       0.0647
     45 H23        -2.5227  -22.3505  -21.4242 H           1 DSK       0.0647
     46 H24        -0.6962  -14.1050  -19.3385 H           1 DSK       0.0672
     47 H25        -2.4731  -15.5678  -21.1865 H           1 DSK       0.0928
@<TRIPOS>BOND
     1    10     1   1
     2    11     2   1
     3    14     3   1
     4    15     4   1
     5    16     5   1
     6    17     6   1
     7    18     7   1
     8    19     8   1
     9    20     9   1
    10    14    10   1
    11    21    11   1
    12    12    15   1
    13    22    12   1
    14    16    13   1
    15    13    22   1
    16    17    14   1
    17    15    18   1
    18    20    16   1
    19    19    17   1
    20    18    19   1
    21    20    21   1
    22    21    22   1
    23     1    23   1
    24     2    24   1
    25     3    25   1
    26     4    26   1
    27     5    27   1
    28     6    28   1
    29     7    29   1
    30     8    30   1
    31     9    31   1
    32    10    32   1
    33    10    33   1
    34    11    34   1
    35    11    35   1
    36    12    36   1
    37    12    37   1
    38    13    38   1
    39    13    39   1
    40    14    40   1
    41    15    41   1
    42    16    42   1
    43    17    43   1
    44    18    44   1
    45    19    45   1
    46    20    46   1
    47    21    47   1
@<TRIPOS>SUBSTRUCTURE
     1  DSK     10

