@<TRIPOS>MOLECULE
3l4u_ligand_040
    47    47
SMALL
GAST_HUCK
****
This file was generated by PARSER (from files_GN.cpp)

@<TRIPOS>ATOM
      1 OAA         0.0702  -21.4903  -25.2141 O.3         1 DSK      -0.3924
      2 OAB        -3.5036  -15.0857  -18.4712 O.3         1 DSK      -0.3900
      3 OAC        -1.6416  -21.3793  -23.2073 O.3         1 DSK      -0.3869
      4 OAD        -2.2695  -20.2504  -18.7835 O.3         1 DSK      -0.3845
      5 OAE         0.1573  -14.3923  -20.8487 O.3         1 DSK      -0.3844
      6 OAF         0.8785  -23.2085  -21.5928 O.3         1 DSK      -0.3865
      7 OAG         0.3505  -21.9788  -18.7254 O.3         1 DSK      -0.3864
      8 OAH        -1.7694  -23.2834  -19.6603 O.3         1 DSK      -0.3865
      9 OAI         0.6167  -15.8944  -18.0556 O.3         1 DSK      -0.3840
     10 CAJ         0.2483  -22.5289  -24.2517 C.3         1 DSK       0.0727
     11 CAK        -2.8805  -16.1860  -17.8096 C.3         1 DSK       0.0944
     12 CAL        -0.9933  -18.8802  -20.3910 C.3         1 DSK       0.1385
     13 CAM        -1.4063  -16.2589  -21.1349 C.3         1 DSK       0.1386
     14 CAN        -0.9291  -22.6197  -23.2305 C.3         1 DSK       0.1065
     15 CAO        -0.9619  -19.9913  -19.3000 C.3         1 DSK       0.1280
     16 CAP        -0.1882  -15.6976  -20.3701 C.3         1 DSK       0.1303
     17 CAQ        -0.5359  -23.1183  -21.7875 C.3         1 DSK       0.1114
     18 CAR        -0.2876  -21.3163  -19.8227 C.3         1 DSK       0.1137
     19 CAS        -1.2117  -22.3425  -20.5888 C.3         1 DSK       0.1119
     20 CAT        -0.5470  -15.6726  -18.8627 C.3         1 DSK       0.1349
     21 CAU        -1.6469  -16.7484  -18.5756 C.3         1 DSK       0.1711
     22 SAV        -2.1934  -17.5349  -20.1246 S.3         1 DSK       0.0029
     23 H1         -0.7672  -21.6915  -25.6805 H           1 DSK       0.2095
     24 H2         -3.0848  -14.2888  -18.0791 H           1 DSK       0.2096
     25 H3         -1.8984  -21.2268  -24.1415 H           1 DSK       0.2100
     26 H4         -2.5642  -19.4053  -18.3829 H           1 DSK       0.2101
     27 H5          0.4340  -14.5229  -21.7817 H           1 DSK       0.2101
     28 H6          0.9888  -23.6152  -20.7043 H           1 DSK       0.2100
     29 H7         -0.3613  -22.1166  -18.0632 H           1 DSK       0.2100
     30 H8         -1.0183  -23.8506  -19.3805 H           1 DSK       0.2100
     31 H9          1.2297  -15.1522  -18.2597 H           1 DSK       0.2101
     32 H10         1.1791  -22.3120  -23.7244 H           1 DSK       0.0584
     33 H11         0.3587  -23.4784  -24.7862 H           1 DSK       0.0584
     34 H12        -3.6268  -16.9737  -17.6833 H           1 DSK       0.0608
     35 H13        -2.5755  -15.8542  -16.8141 H           1 DSK       0.0608
     36 H14        -1.2523  -19.3355  -21.3428 H           1 DSK       0.0867
     37 H15         0.0125  -18.4735  -20.4807 H           1 DSK       0.0867
     38 H16        -1.1095  -16.6602  -22.1083 H           1 DSK       0.0867
     39 H17        -2.1435  -15.4689  -21.2960 H           1 DSK       0.0867
     40 H18        -1.6465  -23.3527  -23.6237 H           1 DSK       0.0643
     41 H19        -0.3682  -19.6017  -18.4647 H           1 DSK       0.0667
     42 H20         0.6781  -16.3490  -20.5409 H           1 DSK       0.0668
     43 H21        -0.8629  -24.1617  -21.7210 H           1 DSK       0.0647
     44 H22         0.5431  -21.0289  -20.4773 H           1 DSK       0.0647
     45 H23        -2.0872  -21.8115  -20.9761 H           1 DSK       0.0647
     46 H24        -0.9058  -14.6685  -18.6114 H           1 DSK       0.0672
     47 H25        -1.2161  -17.5277  -17.9438 H           1 DSK       0.0928
@<TRIPOS>BOND
     1    10     1   1
     2    11     2   1
     3    14     3   1
     4    15     4   1
     5    16     5   1
     6    17     6   1
     7    18     7   1
     8    19     8   1
     9    20     9   1
    10    14    10   1
    11    21    11   1
    12    12    15   1
    13    22    12   1
    14    16    13   1
    15    13    22   1
    16    17    14   1
    17    15    18   1
    18    20    16   1
    19    19    17   1
    20    18    19   1
    21    20    21   1
    22    21    22   1
    23     1    23   1
    24     2    24   1
    25     3    25   1
    26     4    26   1
    27     5    27   1
    28     6    28   1
    29     7    29   1
    30     8    30   1
    31     9    31   1
    32    10    32   1
    33    10    33   1
    34    11    34   1
    35    11    35   1
    36    12    36   1
    37    12    37   1
    38    13    38   1
    39    13    39   1
    40    14    40   1
    41    15    41   1
    42    16    42   1
    43    17    43   1
    44    18    44   1
    45    19    45   1
    46    20    46   1
    47    21    47   1
@<TRIPOS>SUBSTRUCTURE
     1  DSK     10

