@<TRIPOS>MOLECULE
3l4u_ligand_006
    47    47
SMALL
GAST_HUCK
****
This file was generated by PARSER (from files_GN.cpp)

@<TRIPOS>ATOM
      1 OAA         3.0192  -22.6789  -19.2284 O.3         1 DSK      -0.3924
      2 OAB        -1.5709  -15.5090  -17.5795 O.3         1 DSK      -0.3900
      3 OAC         2.8462  -23.5489  -22.8055 O.3         1 DSK      -0.3869
      4 OAD        -1.8864  -21.1738  -21.6192 O.3         1 DSK      -0.3845
      5 OAE        -4.0442  -15.8712  -20.2433 O.3         1 DSK      -0.3844
      6 OAF         0.3960  -22.7014  -22.7629 O.3         1 DSK      -0.3865
      7 OAG        -1.4951  -22.3664  -18.4902 O.3         1 DSK      -0.3864
      8 OAH         0.3728  -24.0458  -19.5098 O.3         1 DSK      -0.3865
      9 OAI        -1.0998  -16.2074  -21.8772 O.3         1 DSK      -0.3840
     10 CAJ         3.4413  -22.7959  -20.5822 C.3         1 DSK       0.0727
     11 CAK        -0.3666  -15.7392  -18.3062 C.3         1 DSK       0.0944
     12 CAL        -0.8776  -19.3377  -20.3798 C.3         1 DSK       0.1385
     13 CAM        -2.9137  -17.7945  -19.2325 C.3         1 DSK       0.1386
     14 CAN         2.3285  -23.4169  -21.4776 C.3         1 DSK       0.1065
     15 CAO        -1.5259  -20.7573  -20.2987 C.3         1 DSK       0.1280
     16 CAP        -2.9729  -16.8090  -20.4113 C.3         1 DSK       0.1303
     17 CAQ         0.9821  -22.6108  -21.4598 C.3         1 DSK       0.1114
     18 CAR        -0.6738  -21.8348  -19.5314 C.3         1 DSK       0.1137
     19 CAS        -0.0948  -23.0173  -20.3855 C.3         1 DSK       0.1119
     20 CAT        -1.6006  -16.0912  -20.5405 C.3         1 DSK       0.1349
     21 CAU        -0.5978  -16.6957  -19.5112 C.3         1 DSK       0.1711
     22 SAV        -1.2097  -18.2994  -18.9231 S.3         1 DSK       0.0029
     23 H1          3.6910  -22.1134  -18.7955 H           1 DSK       0.2095
     24 H2         -1.5446  -14.5575  -17.3549 H           1 DSK       0.2096
     25 H3          3.4842  -22.8131  -22.9322 H           1 DSK       0.2100
     26 H4         -1.1659  -20.8502  -22.1958 H           1 DSK       0.2101
     27 H5         -3.9099  -15.2014  -20.9510 H           1 DSK       0.2101
     28 H6          0.4094  -21.7910  -23.1150 H           1 DSK       0.2100
     29 H7         -0.8975  -22.8548  -17.8841 H           1 DSK       0.2100
     30 H8          1.1331  -23.6535  -19.0289 H           1 DSK       0.2100
     31 H9         -1.6423  -15.5765  -22.4021 H           1 DSK       0.2101
     32 H10         4.3391  -23.4188  -20.6212 H           1 DSK       0.0584
     33 H11         3.7018  -21.8050  -20.9611 H           1 DSK       0.0584
     34 H12         0.3828  -16.1439  -17.6256 H           1 DSK       0.0608
     35 H13         0.0014  -14.7788  -18.6819 H           1 DSK       0.0608
     36 H14        -1.2192  -18.8361  -21.2766 H           1 DSK       0.0867
     37 H15         0.2034  -19.4402  -20.4714 H           1 DSK       0.0867
     38 H16        -3.5359  -18.6577  -19.4328 H           1 DSK       0.0867
     39 H17        -3.2877  -17.3186  -18.3287 H           1 DSK       0.0867
     40 H18         2.1580  -24.4442  -21.1463 H           1 DSK       0.0643
     41 H19        -2.4913  -20.6622  -19.8003 H           1 DSK       0.0667
     42 H20        -3.1816  -17.3704  -21.3295 H           1 DSK       0.0668
     43 H21         1.2378  -21.5588  -21.3176 H           1 DSK       0.0647
     44 H22         0.1651  -21.3479  -19.0230 H           1 DSK       0.0647
     45 H23        -0.9358  -23.4892  -20.8978 H           1 DSK       0.0647
     46 H24        -1.7236  -15.0137  -20.3737 H           1 DSK       0.0672
     47 H25         0.3770  -16.8491  -19.9817 H           1 DSK       0.0928
@<TRIPOS>BOND
     1    10     1   1
     2    11     2   1
     3    14     3   1
     4    15     4   1
     5    16     5   1
     6    17     6   1
     7    18     7   1
     8    19     8   1
     9    20     9   1
    10    14    10   1
    11    21    11   1
    12    12    15   1
    13    22    12   1
    14    16    13   1
    15    13    22   1
    16    17    14   1
    17    15    18   1
    18    20    16   1
    19    19    17   1
    20    18    19   1
    21    20    21   1
    22    21    22   1
    23     1    23   1
    24     2    24   1
    25     3    25   1
    26     4    26   1
    27     5    27   1
    28     6    28   1
    29     7    29   1
    30     8    30   1
    31     9    31   1
    32    10    32   1
    33    10    33   1
    34    11    34   1
    35    11    35   1
    36    12    36   1
    37    12    37   1
    38    13    38   1
    39    13    39   1
    40    14    40   1
    41    15    41   1
    42    16    42   1
    43    17    43   1
    44    18    44   1
    45    19    45   1
    46    20    46   1
    47    21    47   1
@<TRIPOS>SUBSTRUCTURE
     1  DSK     10

