@<TRIPOS>MOLECULE
3l4u_ligand_022
    47    47
SMALL
GAST_HUCK
****
This file was generated by PARSER (from files_GN.cpp)

@<TRIPOS>ATOM
      1 OAA         2.5687  -15.4481  -21.8856 O.3         1 DSK      -0.3924
      2 OAB         0.0236  -22.5941  -21.9709 O.3         1 DSK      -0.3900
      3 OAC        -0.0634  -16.0324  -21.6957 O.3         1 DSK      -0.3869
      4 OAD        -1.9006  -18.2667  -22.3621 O.3         1 DSK      -0.3845
      5 OAE        -2.1474  -22.9285  -17.3623 O.3         1 DSK      -0.3844
      6 OAF        -0.5679  -14.3277  -19.3391 O.3         1 DSK      -0.3865
      7 OAG        -3.7520  -16.8544  -20.1020 O.3         1 DSK      -0.3864
      8 OAH        -2.3306  -15.9092  -18.0642 O.3         1 DSK      -0.3865
      9 OAI        -0.7000  -19.8466  -17.9750 O.3         1 DSK      -0.3840
     10 CAJ         1.9538  -15.2886  -20.6072 C.3         1 DSK       0.0727
     11 CAK         0.1839  -22.3613  -20.5706 C.3         1 DSK       0.0944
     12 CAL        -2.9021  -19.4790  -20.4707 C.3         1 DSK       0.1385
     13 CAM        -2.9991  -22.0742  -19.4834 C.3         1 DSK       0.1386
     14 CAN         0.6621  -16.1324  -20.4673 C.3         1 DSK       0.1065
     15 CAO        -1.9514  -18.3240  -20.9276 C.3         1 DSK       0.1280
     16 CAP        -2.2437  -21.7534  -18.1715 C.3         1 DSK       0.1303
     17 CAQ        -0.2257  -15.7174  -19.2496 C.3         1 DSK       0.1114
     18 CAR        -2.3429  -16.9267  -20.3248 C.3         1 DSK       0.1137
     19 CAS        -1.5156  -16.5784  -19.0293 C.3         1 DSK       0.1119
     20 CAT        -0.8407  -21.1697  -18.5082 C.3         1 DSK       0.1349
     21 CAU        -0.6483  -21.1535  -20.0555 C.3         1 DSK       0.1711
     22 SAV        -2.2769  -21.1478  -20.8536 S.3         1 DSK       0.0029
     23 H1          2.4552  -16.3954  -22.1059 H           1 DSK       0.2095
     24 H2          0.1103  -21.7137  -22.3916 H           1 DSK       0.2096
     25 H3          0.2471  -16.8035  -22.2204 H           1 DSK       0.2100
     26 H4         -1.2135  -18.9250  -22.6034 H           1 DSK       0.2101
     27 H5         -1.7073  -22.6420  -16.5322 H           1 DSK       0.2101
     28 H6         -0.6474  -14.0187  -18.4044 H           1 DSK       0.2100
     29 H7         -3.9191  -15.9232  -19.8466 H           1 DSK       0.2100
     30 H8         -2.9538  -16.5927  -17.7262 H           1 DSK       0.2100
     31 H9         -0.9063  -19.9387  -17.0188 H           1 DSK       0.2101
     32 H10         1.7327  -14.2255  -20.4773 H           1 DSK       0.0584
     33 H11         2.6738  -15.5931  -19.8437 H           1 DSK       0.0584
     34 H12         1.2419  -22.1757  -20.3758 H           1 DSK       0.0608
     35 H13        -0.1015  -23.2710  -20.0417 H           1 DSK       0.0608
     36 H14        -3.8487  -19.3709  -21.0084 H           1 DSK       0.0867
     37 H15        -3.1080  -19.3738  -19.4005 H           1 DSK       0.0867
     38 H16        -4.0650  -21.8536  -19.3909 H           1 DSK       0.0867
     39 H17        -2.8929  -23.1334  -19.7228 H           1 DSK       0.0867
     40 H18         0.9665  -17.1734  -20.3241 H           1 DSK       0.0643
     41 H19        -0.9322  -18.5822  -20.6078 H           1 DSK       0.0667
     42 H20        -2.8267  -21.0218  -17.6006 H           1 DSK       0.0668
     43 H21         0.3869  -15.8277  -18.3460 H           1 DSK       0.0647
     44 H22        -2.1569  -16.1595  -21.0830 H           1 DSK       0.0647
     45 H23        -1.2033  -17.5096  -18.5384 H           1 DSK       0.0647
     46 H24        -0.0585  -21.7735  -18.0359 H           1 DSK       0.0672
     47 H25        -0.1081  -20.2489  -20.3526 H           1 DSK       0.0928
@<TRIPOS>BOND
     1    10     1   1
     2    11     2   1
     3    14     3   1
     4    15     4   1
     5    16     5   1
     6    17     6   1
     7    18     7   1
     8    19     8   1
     9    20     9   1
    10    14    10   1
    11    21    11   1
    12    12    15   1
    13    22    12   1
    14    16    13   1
    15    13    22   1
    16    17    14   1
    17    15    18   1
    18    20    16   1
    19    19    17   1
    20    18    19   1
    21    20    21   1
    22    21    22   1
    23     1    23   1
    24     2    24   1
    25     3    25   1
    26     4    26   1
    27     5    27   1
    28     6    28   1
    29     7    29   1
    30     8    30   1
    31     9    31   1
    32    10    32   1
    33    10    33   1
    34    11    34   1
    35    11    35   1
    36    12    36   1
    37    12    37   1
    38    13    38   1
    39    13    39   1
    40    14    40   1
    41    15    41   1
    42    16    42   1
    43    17    43   1
    44    18    44   1
    45    19    45   1
    46    20    46   1
    47    21    47   1
@<TRIPOS>SUBSTRUCTURE
     1  DSK     10

