@<TRIPOS>MOLECULE
3l4u_ligand_015
    47    47
SMALL
GAST_HUCK
****
This file was generated by PARSER (from files_GN.cpp)

@<TRIPOS>ATOM
      1 OAA         2.9365  -23.4378  -22.8724 O.3         1 DSK      -0.3924
      2 OAB         0.0506  -15.9474  -23.1807 O.3         1 DSK      -0.3900
      3 OAC         1.4892  -24.7605  -20.5607 O.3         1 DSK      -0.3869
      4 OAD        -0.6513  -19.9628  -18.4406 O.3         1 DSK      -0.3845
      5 OAE        -0.1638  -14.1731  -18.9398 O.3         1 DSK      -0.3844
      6 OAF         0.5192  -22.7309  -22.4690 O.3         1 DSK      -0.3865
      7 OAG        -2.0142  -21.1657  -21.6690 O.3         1 DSK      -0.3864
      8 OAH        -0.3171  -22.8153  -18.8911 O.3         1 DSK      -0.3865
      9 OAI        -3.3738  -15.6353  -19.9266 O.3         1 DSK      -0.3840
     10 CAJ         3.2113  -23.2817  -21.4846 C.3         1 DSK       0.0727
     11 CAK        -0.2477  -15.1995  -22.0032 C.3         1 DSK       0.0944
     12 CAL        -1.5232  -18.6193  -20.2767 C.3         1 DSK       0.1385
     13 CAM        -0.8549  -16.4862  -18.5301 C.3         1 DSK       0.1386
     14 CAN         1.9303  -23.4073  -20.6152 C.3         1 DSK       0.1065
     15 CAO        -0.8071  -19.9401  -19.8630 C.3         1 DSK       0.1280
     16 CAP        -1.2916  -15.0382  -18.8079 C.3         1 DSK       0.1303
     17 CAQ         0.7840  -22.4599  -21.0853 C.3         1 DSK       0.1114
     18 CAR        -1.4759  -21.2735  -20.3513 C.3         1 DSK       0.1137
     19 CAS        -0.5560  -22.5378  -20.2666 C.3         1 DSK       0.1119
     20 CAT        -2.0726  -15.0748  -20.1353 C.3         1 DSK       0.1349
     21 CAU        -1.2776  -15.9665  -21.1236 C.3         1 DSK       0.1711
     22 SAV        -0.3894  -17.2021  -20.1278 S.3         1 DSK       0.0029
     23 H1          3.5397  -22.8025  -23.3160 H           1 DSK       0.2095
     24 H2          0.7538  -16.5748  -22.9171 H           1 DSK       0.2096
     25 H3          1.1148  -24.9648  -21.4462 H           1 DSK       0.2100
     26 H4         -1.5597  -19.8959  -18.0721 H           1 DSK       0.2101
     27 H5          0.0924  -13.9495  -18.0242 H           1 DSK       0.2101
     28 H6          0.4635  -21.8478  -22.8928 H           1 DSK       0.2100
     29 H7         -1.2928  -20.7933  -22.2171 H           1 DSK       0.2100
     30 H8         -0.0337  -23.7512  -18.8480 H           1 DSK       0.2100
     31 H9         -3.8893  -14.9465  -19.4546 H           1 DSK       0.2101
     32 H10         3.6747  -22.3110  -21.3243 H           1 DSK       0.0584
     33 H11         3.9360  -24.0520  -21.1942 H           1 DSK       0.0584
     34 H12        -0.6570  -14.2413  -22.3268 H           1 DSK       0.0608
     35 H13         0.6814  -14.9987  -21.4614 H           1 DSK       0.0608
     36 H14        -2.4363  -18.4728  -19.6946 H           1 DSK       0.0867
     37 H15        -1.8026  -18.6825  -21.3289 H           1 DSK       0.0867
     38 H16        -1.6732  -17.0397  -18.0642 H           1 DSK       0.0867
     39 H17         0.0030  -16.5105  -17.8538 H           1 DSK       0.0867
     40 H18         2.2221  -23.1226  -19.6030 H           1 DSK       0.0643
     41 H19         0.1991  -19.8963  -20.2794 H           1 DSK       0.0667
     42 H20        -1.9218  -14.6610  -17.9977 H           1 DSK       0.0668
     43 H21         1.1836  -21.4377  -21.0324 H           1 DSK       0.0647
     44 H22        -2.3445  -21.4555  -19.7085 H           1 DSK       0.0647
     45 H23        -1.1252  -23.3810  -20.6569 H           1 DSK       0.0647
     46 H24        -2.2073  -14.0584  -20.5177 H           1 DSK       0.0672
     47 H25        -1.9759  -16.4452  -21.8139 H           1 DSK       0.0928
@<TRIPOS>BOND
     1    10     1   1
     2    11     2   1
     3    14     3   1
     4    15     4   1
     5    16     5   1
     6    17     6   1
     7    18     7   1
     8    19     8   1
     9    20     9   1
    10    14    10   1
    11    21    11   1
    12    12    15   1
    13    22    12   1
    14    16    13   1
    15    13    22   1
    16    17    14   1
    17    15    18   1
    18    20    16   1
    19    19    17   1
    20    18    19   1
    21    20    21   1
    22    21    22   1
    23     1    23   1
    24     2    24   1
    25     3    25   1
    26     4    26   1
    27     5    27   1
    28     6    28   1
    29     7    29   1
    30     8    30   1
    31     9    31   1
    32    10    32   1
    33    10    33   1
    34    11    34   1
    35    11    35   1
    36    12    36   1
    37    12    37   1
    38    13    38   1
    39    13    39   1
    40    14    40   1
    41    15    41   1
    42    16    42   1
    43    17    43   1
    44    18    44   1
    45    19    45   1
    46    20    46   1
    47    21    47   1
@<TRIPOS>SUBSTRUCTURE
     1  DSK     10

