@<TRIPOS>MOLECULE
3l4u_ligand_073
    47    47
SMALL
GAST_HUCK
****
This file was generated by PARSER (from files_GN.cpp)

@<TRIPOS>ATOM
      1 OAA        -0.7824  -13.7231  -20.6202 O.3         1 DSK      -0.3924
      2 OAB        -2.3970  -19.6534  -23.4772 O.3         1 DSK      -0.3900
      3 OAC        -0.0276  -15.5406  -23.6294 O.3         1 DSK      -0.3869
      4 OAD        -3.3700  -17.6569  -17.9195 O.3         1 DSK      -0.3845
      5 OAE        -2.8948  -23.6106  -21.0762 O.3         1 DSK      -0.3844
      6 OAF        -1.1792  -17.4982  -22.3647 O.3         1 DSK      -0.3865
      7 OAG        -0.5516  -17.0946  -17.6862 O.3         1 DSK      -0.3864
      8 OAH         0.9396  -16.3937  -19.7386 O.3         1 DSK      -0.3865
      9 OAI         0.1712  -21.6002  -20.9327 O.3         1 DSK      -0.3840
     10 CAJ         0.0266  -13.9508  -21.7768 C.3         1 DSK       0.0727
     11 CAK        -3.0313  -20.3570  -22.4101 C.3         1 DSK       0.0944
     12 CAL        -1.9817  -19.4965  -18.6885 C.3         1 DSK       0.1385
     13 CAM        -2.2067  -22.2433  -19.1580 C.3         1 DSK       0.1386
     14 CAN         0.1392  -15.4455  -22.2188 C.3         1 DSK       0.1065
     15 CAO        -2.4221  -18.0146  -18.9331 C.3         1 DSK       0.1280
     16 CAP        -1.7825  -22.9648  -20.4534 C.3         1 DSK       0.1303
     17 CAQ        -0.8237  -16.4335  -21.4787 C.3         1 DSK       0.1114
     18 CAR        -1.2564  -16.9699  -18.9238 C.3         1 DSK       0.1137
     19 CAS        -0.2659  -17.0340  -20.1314 C.3         1 DSK       0.1119
     20 CAT        -1.1698  -21.8752  -21.3612 C.3         1 DSK       0.1349
     21 CAU        -2.0484  -20.5996  -21.2323 C.3         1 DSK       0.1711
     22 SAV        -2.9689  -20.6800  -19.6632 S.3         1 DSK       0.0029
     23 H1         -1.6993  -13.8476  -20.9356 H           1 DSK       0.2095
     24 H2         -2.2089  -20.3234  -24.1855 H           1 DSK       0.2096
     25 H3         -0.7480  -14.9055  -23.8610 H           1 DSK       0.2100
     26 H4         -3.6854  -16.7551  -18.1499 H           1 DSK       0.2101
     27 H5         -3.5700  -22.9146  -21.2024 H           1 DSK       0.2101
     28 H6         -0.3713  -18.0429  -22.4657 H           1 DSK       0.2100
     29 H7          0.0110  -16.2980  -17.6229 H           1 DSK       0.2100
     30 H8          0.7081  -15.4510  -19.5716 H           1 DSK       0.2100
     31 H9          0.6916  -22.4105  -21.1402 H           1 DSK       0.2101
     32 H10         1.0281  -13.5567  -21.5528 H           1 DSK       0.0584
     33 H11        -0.3877  -13.3332  -22.5770 H           1 DSK       0.0584
     34 H12        -3.4441  -21.2992  -22.7871 H           1 DSK       0.0608
     35 H13        -3.8628  -19.7297  -22.0819 H           1 DSK       0.0608
     36 H14        -2.0987  -19.7338  -17.6212 H           1 DSK       0.0867
     37 H15        -0.9185  -19.6267  -18.9237 H           1 DSK       0.0867
     38 H16        -1.3276  -22.0825  -18.5239 H           1 DSK       0.0867
     39 H17        -2.9295  -22.8436  -18.5964 H           1 DSK       0.0867
     40 H18         1.1614  -15.7777  -22.0484 H           1 DSK       0.0643
     41 H19        -2.9392  -17.9314  -19.8915 H           1 DSK       0.0667
     42 H20        -1.0472  -23.7448  -20.2284 H           1 DSK       0.0668
     43 H21        -1.7719  -15.9230  -21.2964 H           1 DSK       0.0647
     44 H22        -1.7000  -15.9679  -18.9243 H           1 DSK       0.0647
     45 H23         0.0146  -18.0764  -20.2992 H           1 DSK       0.0647
     46 H24        -1.1152  -22.2197  -22.3986 H           1 DSK       0.0672
     47 H25        -1.3876  -19.7349  -21.2102 H           1 DSK       0.0928
@<TRIPOS>BOND
     1    10     1   1
     2    11     2   1
     3    14     3   1
     4    15     4   1
     5    16     5   1
     6    17     6   1
     7    18     7   1
     8    19     8   1
     9    20     9   1
    10    14    10   1
    11    21    11   1
    12    12    15   1
    13    22    12   1
    14    16    13   1
    15    13    22   1
    16    17    14   1
    17    15    18   1
    18    20    16   1
    19    19    17   1
    20    18    19   1
    21    20    21   1
    22    21    22   1
    23     1    23   1
    24     2    24   1
    25     3    25   1
    26     4    26   1
    27     5    27   1
    28     6    28   1
    29     7    29   1
    30     8    30   1
    31     9    31   1
    32    10    32   1
    33    10    33   1
    34    11    34   1
    35    11    35   1
    36    12    36   1
    37    12    37   1
    38    13    38   1
    39    13    39   1
    40    14    40   1
    41    15    41   1
    42    16    42   1
    43    17    43   1
    44    18    44   1
    45    19    45   1
    46    20    46   1
    47    21    47   1
@<TRIPOS>SUBSTRUCTURE
     1  DSK     10

