@<TRIPOS>MOLECULE
3l4u_ligand_020
    47    47
SMALL
GAST_HUCK
****
This file was generated by PARSER (from files_GN.cpp)

@<TRIPOS>ATOM
      1 OAA        -1.0180  -24.5419  -12.0187 O.3         1 DSK      -0.3924
      2 OAB        -2.8468  -15.7105  -16.9670 O.3         1 DSK      -0.3900
      3 OAC        -0.5886  -24.5347  -15.6831 O.3         1 DSK      -0.3869
      4 OAD        -2.9922  -21.5482  -18.4488 O.3         1 DSK      -0.3845
      5 OAE        -0.7955  -16.8135  -22.3491 O.3         1 DSK      -0.3844
      6 OAF         1.1129  -22.6483  -14.3707 O.3         1 DSK      -0.3865
      7 OAG        -0.4533  -22.5900  -17.3915 O.3         1 DSK      -0.3864
      8 OAH         0.2133  -20.5111  -15.5052 O.3         1 DSK      -0.3865
      9 OAI        -1.5650  -14.9829  -20.0132 O.3         1 DSK      -0.3840
     10 CAJ        -0.5400  -24.9422  -13.3045 C.3         1 DSK       0.0727
     11 CAK        -3.2673  -16.5890  -18.0107 C.3         1 DSK       0.0944
     12 CAL        -1.3333  -19.7917  -18.1501 C.3         1 DSK       0.1385
     13 CAM        -1.0651  -18.6359  -20.7109 C.3         1 DSK       0.1386
     14 CAN        -0.9626  -23.9561  -14.4262 C.3         1 DSK       0.1065
     15 CAO        -2.2286  -20.8618  -17.4503 C.3         1 DSK       0.1280
     16 CAP        -0.8039  -17.1292  -20.9560 C.3         1 DSK       0.1303
     17 CAQ        -0.3190  -22.5433  -14.2888 C.3         1 DSK       0.1114
     18 CAR        -1.4654  -21.9444  -16.6113 C.3         1 DSK       0.1137
     19 CAS        -0.8537  -21.4377  -15.2626 C.3         1 DSK       0.1119
     20 CAT        -1.9010  -16.3564  -20.2010 C.3         1 DSK       0.1349
     21 CAU        -2.0704  -17.0999  -18.8513 C.3         1 DSK       0.1711
     22 SAV        -2.2866  -18.8259  -19.3791 S.3         1 DSK       0.0029
     23 H1         -0.6758  -25.2462  -11.4120 H           1 DSK       0.2095
     24 H2         -2.8046  -14.8130  -17.3651 H           1 DSK       0.2096
     25 H3         -1.2475  -25.2646  -15.8294 H           1 DSK       0.2100
     26 H4         -3.7839  -21.8779  -17.9882 H           1 DSK       0.2101
     27 H5         -0.0124  -17.2994  -22.6928 H           1 DSK       0.2101
     28 H6          1.4405  -22.0249  -13.6704 H           1 DSK       0.2100
     29 H7         -0.9405  -23.0547  -18.1032 H           1 DSK       0.2100
     30 H8          0.5772  -20.7767  -16.3850 H           1 DSK       0.2100
     31 H9         -2.1361  -14.4973  -20.6546 H           1 DSK       0.2101
     32 H10        -0.9522  -25.9328  -13.5195 H           1 DSK       0.0584
     33 H11         0.5500  -25.0246  -13.2654 H           1 DSK       0.0584
     34 H12        -3.9923  -16.0639  -18.6348 H           1 DSK       0.0608
     35 H13        -3.7727  -17.4343  -17.5429 H           1 DSK       0.0608
     36 H14        -0.5221  -20.3244  -18.6551 H           1 DSK       0.0867
     37 H15        -0.8810  -19.1333  -17.4086 H           1 DSK       0.0867
     38 H16        -0.1170  -19.1464  -20.5062 H           1 DSK       0.0867
     39 H17        -1.5087  -19.0956  -21.6009 H           1 DSK       0.0867
     40 H18        -2.0557  -23.8460  -14.3970 H           1 DSK       0.0643
     41 H19        -2.9503  -20.3420  -16.8061 H           1 DSK       0.0667
     42 H20         0.1714  -16.8635  -20.5344 H           1 DSK       0.0668
     43 H21        -0.5452  -22.1842  -13.2755 H           1 DSK       0.0647
     44 H22        -2.2023  -22.7057  -16.3456 H           1 DSK       0.0647
     45 H23        -1.6355  -20.8829  -14.7309 H           1 DSK       0.0647
     46 H24        -2.8415  -16.4035  -20.7657 H           1 DSK       0.0672
     47 H25        -1.1458  -16.9865  -18.2694 H           1 DSK       0.0928
@<TRIPOS>BOND
     1    10     1   1
     2    11     2   1
     3    14     3   1
     4    15     4   1
     5    16     5   1
     6    17     6   1
     7    18     7   1
     8    19     8   1
     9    20     9   1
    10    14    10   1
    11    21    11   1
    12    12    15   1
    13    22    12   1
    14    16    13   1
    15    13    22   1
    16    17    14   1
    17    15    18   1
    18    20    16   1
    19    19    17   1
    20    18    19   1
    21    20    21   1
    22    21    22   1
    23     1    23   1
    24     2    24   1
    25     3    25   1
    26     4    26   1
    27     5    27   1
    28     6    28   1
    29     7    29   1
    30     8    30   1
    31     9    31   1
    32    10    32   1
    33    10    33   1
    34    11    34   1
    35    11    35   1
    36    12    36   1
    37    12    37   1
    38    13    38   1
    39    13    39   1
    40    14    40   1
    41    15    41   1
    42    16    42   1
    43    17    43   1
    44    18    44   1
    45    19    45   1
    46    20    46   1
    47    21    47   1
@<TRIPOS>SUBSTRUCTURE
     1  DSK     10

