@<TRIPOS>MOLECULE
3l4u_ligand_042
    47    47
SMALL
GAST_HUCK
****
This file was generated by PARSER (from files_GN.cpp)

@<TRIPOS>ATOM
      1 OAA        -4.4467  -22.3399  -19.3907 O.3         1 DSK      -0.3924
      2 OAB        -0.0142  -15.8950  -22.8573 O.3         1 DSK      -0.3900
      3 OAC        -4.9546  -23.4512  -22.0883 O.3         1 DSK      -0.3869
      4 OAD        -2.6064  -20.2225  -19.5757 O.3         1 DSK      -0.3845
      5 OAE        -0.2726  -15.8154  -17.7089 O.3         1 DSK      -0.3844
      6 OAF        -4.9864  -19.7971  -21.4152 O.3         1 DSK      -0.3865
      7 OAG        -2.2171  -22.4885  -21.0921 O.3         1 DSK      -0.3864
      8 OAH        -3.0819  -19.9367  -23.5883 O.3         1 DSK      -0.3865
      9 OAI        -3.1381  -14.6815  -19.6180 O.3         1 DSK      -0.3840
     10 CAJ        -5.6938  -22.2731  -20.0821 C.3         1 DSK       0.0727
     11 CAK        -0.2882  -15.1732  -21.6594 C.3         1 DSK       0.0944
     12 CAL        -1.7679  -18.6543  -21.2559 C.3         1 DSK       0.1385
     13 CAM        -1.7856  -17.4088  -18.7444 C.3         1 DSK       0.1386
     14 CAN        -5.5243  -22.2257  -21.6267 C.3         1 DSK       0.1065
     15 CAO        -1.7776  -20.1249  -20.7356 C.3         1 DSK       0.1280
     16 CAP        -1.5815  -15.9651  -18.2677 C.3         1 DSK       0.1303
     17 CAQ        -4.8263  -20.9552  -22.2366 C.3         1 DSK       0.1114
     18 CAR        -2.1377  -21.2378  -21.7788 C.3         1 DSK       0.1137
     19 CAS        -3.3528  -21.0687  -22.7515 C.3         1 DSK       0.1119
     20 CAT        -1.7635  -15.0828  -19.5266 C.3         1 DSK       0.1349
     21 CAU        -1.3520  -15.8984  -20.7946 C.3         1 DSK       0.1711
     22 SAV        -0.7684  -17.5262  -20.2286 S.3         1 DSK       0.0029
     23 H1         -4.6969  -22.4106  -18.4444 H           1 DSK       0.2095
     24 H2          0.4705  -16.6967  -22.5683 H           1 DSK       0.2096
     25 H3         -4.0962  -23.5296  -21.6244 H           1 DSK       0.2100
     26 H4         -3.4946  -19.9367  -19.8672 H           1 DSK       0.2101
     27 H5         -0.2303  -14.8881  -17.4038 H           1 DSK       0.2101
     28 H6         -5.9623  -19.7011  -21.3081 H           1 DSK       0.2100
     29 H7         -2.1607  -23.1751  -21.7972 H           1 DSK       0.2100
     30 H8         -2.4633  -20.2759  -24.2680 H           1 DSK       0.2100
     31 H9         -3.1926  -14.1888  -20.4658 H           1 DSK       0.2101
     32 H10        -6.2496  -21.3922  -19.7371 H           1 DSK       0.0584
     33 H11        -6.2788  -23.1592  -19.8147 H           1 DSK       0.0584
     34 H12        -0.6600  -14.1872  -21.9495 H           1 DSK       0.0608
     35 H13         0.6430  -15.0408  -21.0985 H           1 DSK       0.0608
     36 H14        -2.8000  -18.2975  -21.3318 H           1 DSK       0.0867
     37 H15        -1.3337  -18.6259  -22.2570 H           1 DSK       0.0867
     38 H16        -2.8477  -17.5846  -18.9592 H           1 DSK       0.0867
     39 H17        -1.4450  -18.1311  -17.9995 H           1 DSK       0.0867
     40 H18        -6.5480  -22.2389  -22.0161 H           1 DSK       0.0643
     41 H19        -0.7650  -20.3547  -20.3888 H           1 DSK       0.0667
     42 H20        -2.3070  -15.7227  -17.4885 H           1 DSK       0.0668
     43 H21        -5.4024  -20.7236  -23.1468 H           1 DSK       0.0647
     44 H22        -1.2591  -21.3297  -22.4269 H           1 DSK       0.0647
     45 H23        -3.3369  -21.9340  -23.4249 H           1 DSK       0.0647
     46 H24        -1.1722  -14.1626  -19.4121 H           1 DSK       0.0672
     47 H25        -2.2329  -16.0336  -21.4290 H           1 DSK       0.0928
@<TRIPOS>BOND
     1    10     1   1
     2    11     2   1
     3    14     3   1
     4    15     4   1
     5    16     5   1
     6    17     6   1
     7    18     7   1
     8    19     8   1
     9    20     9   1
    10    14    10   1
    11    21    11   1
    12    12    15   1
    13    22    12   1
    14    16    13   1
    15    13    22   1
    16    17    14   1
    17    15    18   1
    18    20    16   1
    19    19    17   1
    20    18    19   1
    21    20    21   1
    22    21    22   1
    23     1    23   1
    24     2    24   1
    25     3    25   1
    26     4    26   1
    27     5    27   1
    28     6    28   1
    29     7    29   1
    30     8    30   1
    31     9    31   1
    32    10    32   1
    33    10    33   1
    34    11    34   1
    35    11    35   1
    36    12    36   1
    37    12    37   1
    38    13    38   1
    39    13    39   1
    40    14    40   1
    41    15    41   1
    42    16    42   1
    43    17    43   1
    44    18    44   1
    45    19    45   1
    46    20    46   1
    47    21    47   1
@<TRIPOS>SUBSTRUCTURE
     1  DSK     10

