@<TRIPOS>MOLECULE
3l4u_ligand_069
    47    47
SMALL
GAST_HUCK
****
This file was generated by PARSER (from files_GN.cpp)

@<TRIPOS>ATOM
      1 OAA        -1.7945  -17.9320  -22.0455 O.3         1 DSK      -0.3924
      2 OAB        -0.8951  -22.9775  -20.2074 O.3         1 DSK      -0.3900
      3 OAC         0.0973  -15.9321  -23.0373 O.3         1 DSK      -0.3869
      4 OAD        -3.2671  -17.6420  -17.7954 O.3         1 DSK      -0.3845
      5 OAE        -2.9551  -22.0329  -15.5744 O.3         1 DSK      -0.3844
      6 OAF         1.5169  -15.4891  -20.7916 O.3         1 DSK      -0.3865
      7 OAG        -1.9156  -15.5402  -17.4117 O.3         1 DSK      -0.3864
      8 OAH        -0.0371  -14.3029  -19.0484 O.3         1 DSK      -0.3865
      9 OAI        -0.1729  -22.7562  -16.4324 O.3         1 DSK      -0.3840
     10 CAJ        -1.9660  -16.5207  -21.9823 C.3         1 DSK       0.0727
     11 CAK         0.0543  -22.1478  -19.5390 C.3         1 DSK       0.0944
     12 CAL        -1.2382  -18.6254  -18.6731 C.3         1 DSK       0.1385
     13 CAM        -2.9653  -20.5359  -17.5471 C.3         1 DSK       0.1386
     14 CAN        -0.6415  -15.7320  -21.8324 C.3         1 DSK       0.1065
     15 CAO        -2.2783  -17.4816  -18.8054 C.3         1 DSK       0.1280
     16 CAP        -2.1369  -21.2843  -16.4772 C.3         1 DSK       0.1303
     17 CAQ         0.2413  -16.1141  -20.5977 C.3         1 DSK       0.1114
     18 CAR        -1.7454  -16.0087  -18.7534 C.3         1 DSK       0.1137
     19 CAS        -0.2756  -15.7025  -19.1830 C.3         1 DSK       0.1119
     20 CAT        -1.1942  -22.2056  -17.2691 C.3         1 DSK       0.1349
     21 CAU        -0.5981  -21.3243  -18.3960 C.3         1 DSK       0.1711
     22 SAV        -1.9417  -20.2692  -19.0192 S.3         1 DSK       0.0029
     23 H1         -0.9012  -18.1152  -22.3977 H           1 DSK       0.2095
     24 H2         -0.3795  -23.4503  -20.8997 H           1 DSK       0.2096
     25 H3          0.8479  -16.5080  -22.7901 H           1 DSK       0.2100
     26 H4         -3.7674  -16.7962  -17.7478 H           1 DSK       0.2101
     27 H5         -2.9632  -21.5189  -14.7354 H           1 DSK       0.2101
     28 H6          1.8285  -15.1918  -19.9000 H           1 DSK       0.2100
     29 H7         -2.0379  -14.5685  -17.4724 H           1 DSK       0.2100
     30 H8         -0.0420  -14.1157  -18.0927 H           1 DSK       0.2100
     31 H9         -0.6443  -23.3630  -15.8267 H           1 DSK       0.2101
     32 H10        -2.6441  -16.2848  -21.1672 H           1 DSK       0.0584
     33 H11        -2.4741  -16.1952  -22.8949 H           1 DSK       0.0584
     34 H12         0.5066  -21.4667  -20.2709 H           1 DSK       0.0608
     35 H13         0.8489  -22.7813  -19.1291 H           1 DSK       0.0608
     36 H14        -0.7612  -18.5973  -17.7018 H           1 DSK       0.0867
     37 H15        -0.4699  -18.4694  -19.4315 H           1 DSK       0.0867
     38 H16        -3.3616  -19.6044  -17.1479 H           1 DSK       0.0867
     39 H17        -3.8152  -21.1582  -17.8427 H           1 DSK       0.0867
     40 H18        -0.8738  -14.6685  -21.7869 H           1 DSK       0.0643
     41 H19        -2.8056  -17.6203  -19.7506 H           1 DSK       0.0667
     42 H20        -1.5453  -20.5631  -15.8978 H           1 DSK       0.0668
     43 H21         0.4402  -17.1882  -20.6232 H           1 DSK       0.0647
     44 H22        -2.4084  -15.3978  -19.3712 H           1 DSK       0.0647
     45 H23         0.3695  -16.2020  -18.4521 H           1 DSK       0.0647
     46 H24        -1.7730  -23.0354  -17.7008 H           1 DSK       0.0672
     47 H25         0.1904  -20.7067  -17.9462 H           1 DSK       0.0928
@<TRIPOS>BOND
     1    10     1   1
     2    11     2   1
     3    14     3   1
     4    15     4   1
     5    16     5   1
     6    17     6   1
     7    18     7   1
     8    19     8   1
     9    20     9   1
    10    14    10   1
    11    21    11   1
    12    12    15   1
    13    22    12   1
    14    16    13   1
    15    13    22   1
    16    17    14   1
    17    15    18   1
    18    20    16   1
    19    19    17   1
    20    18    19   1
    21    20    21   1
    22    21    22   1
    23     1    23   1
    24     2    24   1
    25     3    25   1
    26     4    26   1
    27     5    27   1
    28     6    28   1
    29     7    29   1
    30     8    30   1
    31     9    31   1
    32    10    32   1
    33    10    33   1
    34    11    34   1
    35    11    35   1
    36    12    36   1
    37    12    37   1
    38    13    38   1
    39    13    39   1
    40    14    40   1
    41    15    41   1
    42    16    42   1
    43    17    43   1
    44    18    44   1
    45    19    45   1
    46    20    46   1
    47    21    47   1
@<TRIPOS>SUBSTRUCTURE
     1  DSK     10

