@<TRIPOS>MOLECULE
3l4u_ligand_038
    47    47
SMALL
GAST_HUCK
****
This file was generated by PARSER (from files_GN.cpp)

@<TRIPOS>ATOM
      1 OAA         3.4057  -16.1484  -22.2117 O.3         1 DSK      -0.3924
      2 OAB        -1.6221  -21.1564  -15.2881 O.3         1 DSK      -0.3900
      3 OAC         2.1222  -13.6624  -20.6775 O.3         1 DSK      -0.3869
      4 OAD        -1.4596  -16.8923  -17.9914 O.3         1 DSK      -0.3845
      5 OAE         0.8795  -22.3683  -18.4707 O.3         1 DSK      -0.3844
      6 OAF        -0.2369  -14.1414  -19.6396 O.3         1 DSK      -0.3865
      7 OAG        -1.6541  -18.4097  -21.3376 O.3         1 DSK      -0.3864
      8 OAH        -0.4833  -16.2947  -22.3056 O.3         1 DSK      -0.3865
      9 OAI        -2.4041  -23.7146  -18.8300 O.3         1 DSK      -0.3840
     10 CAJ         2.7777  -15.9893  -20.9252 C.3         1 DSK       0.0727
     11 CAK        -2.6721  -21.6290  -16.1432 C.3         1 DSK       0.0944
     12 CAL        -2.5651  -18.9735  -18.6356 C.3         1 DSK       0.1385
     13 CAM        -0.7569  -20.9142  -19.5618 C.3         1 DSK       0.1386
     14 CAN         1.6098  -14.9540  -21.0214 C.3         1 DSK       0.1065
     15 CAO        -2.0536  -17.5744  -19.0987 C.3         1 DSK       0.1280
     16 CAP        -0.3979  -22.3555  -19.1284 C.3         1 DSK       0.1303
     17 CAQ         0.3668  -15.3332  -20.1596 C.3         1 DSK       0.1114
     18 CAR        -1.0730  -17.5842  -20.3087 C.3         1 DSK       0.1137
     19 CAS        -0.7597  -16.1645  -20.9074 C.3         1 DSK       0.1119
     20 CAT        -1.5141  -22.8214  -18.1659 C.3         1 DSK       0.1349
     21 CAU        -2.2934  -21.5711  -17.6409 C.3         1 DSK       0.1711
     22 SAV        -1.2757  -20.1036  -18.0141 S.3         1 DSK       0.0029
     23 H1          3.1548  -17.0606  -22.4780 H           1 DSK       0.2095
     24 H2         -2.0389  -21.1074  -14.3917 H           1 DSK       0.2096
     25 H3          2.9655  -13.5947  -21.1959 H           1 DSK       0.2100
     26 H4         -2.2218  -16.5251  -17.4852 H           1 DSK       0.2101
     27 H5          1.5362  -22.2420  -19.1901 H           1 DSK       0.2101
     28 H6         -0.1338  -14.1852  -18.6540 H           1 DSK       0.2100
     29 H7         -0.8951  -18.7358  -21.8724 H           1 DSK       0.2100
     30 H8          0.3004  -16.8818  -22.3608 H           1 DSK       0.2100
     31 H9         -2.7280  -23.2260  -19.6159 H           1 DSK       0.2101
     32 H10         3.5397  -15.6379  -20.2147 H           1 DSK       0.0584
     33 H11         2.4289  -16.9742  -20.5630 H           1 DSK       0.0584
     34 H12        -3.5683  -21.0212  -15.9620 H           1 DSK       0.0608
     35 H13        -2.9070  -22.6675  -15.8645 H           1 DSK       0.0608
     36 H14        -3.1451  -19.4244  -19.4433 H           1 DSK       0.0867
     37 H15        -3.2518  -18.8024  -17.8108 H           1 DSK       0.0867
     38 H16        -1.5645  -20.9553  -20.3195 H           1 DSK       0.0867
     39 H17         0.1176  -20.4115  -20.0023 H           1 DSK       0.0867
     40 H18         1.3059  -14.8594  -22.0658 H           1 DSK       0.0643
     41 H19        -2.9372  -16.9962  -19.3989 H           1 DSK       0.0667
     42 H20        -0.3273  -23.0042  -20.0126 H           1 DSK       0.0668
     43 H21         0.7111  -15.8942  -19.2873 H           1 DSK       0.0647
     44 H22        -0.1282  -18.0492  -20.0091 H           1 DSK       0.0647
     45 H23        -1.6934  -15.5980  -20.8805 H           1 DSK       0.0647
     46 H24        -1.0698  -23.3678  -17.3339 H           1 DSK       0.0672
     47 H25        -3.2382  -21.4996  -18.2024 H           1 DSK       0.0928
@<TRIPOS>BOND
     1    10     1   1
     2    11     2   1
     3    14     3   1
     4    15     4   1
     5    16     5   1
     6    17     6   1
     7    18     7   1
     8    19     8   1
     9    20     9   1
    10    14    10   1
    11    21    11   1
    12    12    15   1
    13    22    12   1
    14    16    13   1
    15    13    22   1
    16    17    14   1
    17    15    18   1
    18    20    16   1
    19    19    17   1
    20    18    19   1
    21    20    21   1
    22    21    22   1
    23     1    23   1
    24     2    24   1
    25     3    25   1
    26     4    26   1
    27     5    27   1
    28     6    28   1
    29     7    29   1
    30     8    30   1
    31     9    31   1
    32    10    32   1
    33    10    33   1
    34    11    34   1
    35    11    35   1
    36    12    36   1
    37    12    37   1
    38    13    38   1
    39    13    39   1
    40    14    40   1
    41    15    41   1
    42    16    42   1
    43    17    43   1
    44    18    44   1
    45    19    45   1
    46    20    46   1
    47    21    47   1
@<TRIPOS>SUBSTRUCTURE
     1  DSK     10

