@<TRIPOS>MOLECULE
3l4u_ligand_062
    47    47
SMALL
GAST_HUCK
****
This file was generated by PARSER (from files_GN.cpp)

@<TRIPOS>ATOM
      1 OAA         0.7430  -15.4614  -22.9514 O.3         1 DSK      -0.3924
      2 OAB        -0.0167  -22.4065  -21.5486 O.3         1 DSK      -0.3900
      3 OAC         1.7799  -16.1560  -20.2583 O.3         1 DSK      -0.3869
      4 OAD        -4.0032  -17.4586  -17.4243 O.3         1 DSK      -0.3845
      5 OAE        -2.2655  -19.5728  -23.4306 O.3         1 DSK      -0.3844
      6 OAF        -1.1788  -16.0475  -21.2476 O.3         1 DSK      -0.3865
      7 OAG        -2.2617  -15.6973  -16.9769 O.3         1 DSK      -0.3864
      8 OAH         0.1169  -15.5628  -17.8601 O.3         1 DSK      -0.3865
      9 OAI        -3.8526  -22.1405  -21.3734 O.3         1 DSK      -0.3840
     10 CAJ         1.1737  -14.5248  -21.9595 C.3         1 DSK       0.0727
     11 CAK        -0.4314  -21.6479  -20.4149 C.3         1 DSK       0.0944
     12 CAL        -2.4064  -18.8035  -18.7025 C.3         1 DSK       0.1385
     13 CAM        -3.3097  -19.0206  -21.3291 C.3         1 DSK       0.1386
     14 CAN         0.9405  -15.0290  -20.5205 C.3         1 DSK       0.1065
     15 CAO        -3.1016  -17.4086  -18.5421 C.3         1 DSK       0.1280
     16 CAP        -3.1870  -20.0569  -22.4523 C.3         1 DSK       0.1303
     17 CAQ        -0.5529  -15.3228  -20.1925 C.3         1 DSK       0.1114
     18 CAR        -2.2348  -16.1044  -18.3512 C.3         1 DSK       0.1137
     19 CAS        -0.7504  -16.1043  -18.8636 C.3         1 DSK       0.1119
     20 CAT        -2.7142  -21.3629  -21.7635 C.3         1 DSK       0.1349
     21 CAU        -1.8536  -20.9992  -20.5000 C.3         1 DSK       0.1711
     22 SAV        -1.7823  -19.1779  -20.3734 S.3         1 DSK       0.0029
     23 H1          1.3106  -16.2544  -22.8332 H           1 DSK       0.2095
     24 H2          0.1660  -21.7485  -22.2511 H           1 DSK       0.2096
     25 H3          1.6784  -16.7584  -21.0252 H           1 DSK       0.2100
     26 H4         -4.1282  -18.4043  -17.1871 H           1 DSK       0.2101
     27 H5         -1.4066  -19.9836  -23.2035 H           1 DSK       0.2101
     28 H6         -1.7982  -15.4141  -21.6798 H           1 DSK       0.2100
     29 H7         -3.1716  -15.3731  -16.8353 H           1 DSK       0.2100
     30 H8         -0.1913  -14.6378  -17.7215 H           1 DSK       0.2100
     31 H9         -4.2840  -22.4204  -22.2103 H           1 DSK       0.2101
     32 H10         0.6392  -13.5823  -22.1125 H           1 DSK       0.0584
     33 H11         2.2427  -14.3337  -22.0889 H           1 DSK       0.0584
     34 H12         0.3351  -20.8914  -20.2374 H           1 DSK       0.0608
     35 H13        -0.3953  -22.3353  -19.5688 H           1 DSK       0.0608
     36 H14        -3.1199  -19.5877  -18.4426 H           1 DSK       0.0867
     37 H15        -1.5748  -18.8847  -17.9991 H           1 DSK       0.0867
     38 H16        -4.1896  -19.2449  -20.7237 H           1 DSK       0.0867
     39 H17        -3.3986  -18.0098  -21.7279 H           1 DSK       0.0867
     40 H18         1.2745  -14.2314  -19.8490 H           1 DSK       0.0643
     41 H19        -3.7362  -17.2597  -19.4147 H           1 DSK       0.0667
     42 H20        -4.1572  -20.1805  -22.9448 H           1 DSK       0.0668
     43 H21        -1.0664  -14.3580  -20.1049 H           1 DSK       0.0647
     44 H22        -2.7686  -15.3014  -18.8701 H           1 DSK       0.0647
     45 H23        -0.4187  -17.1342  -19.0027 H           1 DSK       0.0647
     46 H24        -2.1693  -21.9587  -22.4983 H           1 DSK       0.0672
     47 H25        -2.3967  -21.3561  -19.6247 H           1 DSK       0.0928
@<TRIPOS>BOND
     1    10     1   1
     2    11     2   1
     3    14     3   1
     4    15     4   1
     5    16     5   1
     6    17     6   1
     7    18     7   1
     8    19     8   1
     9    20     9   1
    10    14    10   1
    11    21    11   1
    12    12    15   1
    13    22    12   1
    14    16    13   1
    15    13    22   1
    16    17    14   1
    17    15    18   1
    18    20    16   1
    19    19    17   1
    20    18    19   1
    21    20    21   1
    22    21    22   1
    23     1    23   1
    24     2    24   1
    25     3    25   1
    26     4    26   1
    27     5    27   1
    28     6    28   1
    29     7    29   1
    30     8    30   1
    31     9    31   1
    32    10    32   1
    33    10    33   1
    34    11    34   1
    35    11    35   1
    36    12    36   1
    37    12    37   1
    38    13    38   1
    39    13    39   1
    40    14    40   1
    41    15    41   1
    42    16    42   1
    43    17    43   1
    44    18    44   1
    45    19    45   1
    46    20    46   1
    47    21    47   1
@<TRIPOS>SUBSTRUCTURE
     1  DSK     10

