@<TRIPOS>MOLECULE
3l4u_ligand_000
    47    47
SMALL
GAST_HUCK
****
This file was generated by PARSER (from files_GN.cpp)

@<TRIPOS>ATOM
      1 OAA         0.1937  -21.2909  -25.0759 O.3         1 DSK      -0.3924
      2 OAB        -0.2232  -16.0539  -22.6162 O.3         1 DSK      -0.3900
      3 OAC        -1.4955  -23.6221  -24.7320 O.3         1 DSK      -0.3869
      4 OAD        -2.0360  -18.5602  -22.6829 O.3         1 DSK      -0.3845
      5 OAE         0.3529  -15.5488  -18.0405 O.3         1 DSK      -0.3844
      6 OAF        -0.1224  -22.4517  -21.5148 O.3         1 DSK      -0.3865
      7 OAG        -3.2636  -21.2951  -20.5208 O.3         1 DSK      -0.3864
      8 OAH        -3.3579  -21.9315  -23.1717 O.3         1 DSK      -0.3865
      9 OAI        -3.0844  -14.6926  -18.9685 O.3         1 DSK      -0.3840
     10 CAJ         0.6245  -22.4731  -24.4044 C.3         1 DSK       0.0727
     11 CAK        -0.3445  -15.2850  -21.4225 C.3         1 DSK       0.0944
     12 CAL        -2.8718  -18.2662  -20.4141 C.3         1 DSK       0.1385
     13 CAM        -1.4577  -17.1610  -18.2851 C.3         1 DSK       0.1386
     14 CAN        -0.5119  -23.3062  -23.7483 C.3         1 DSK       0.1065
     15 CAO        -2.8458  -19.1740  -21.6781 C.3         1 DSK       0.1280
     16 CAP        -1.0665  -15.6932  -18.0631 C.3         1 DSK       0.1303
     17 CAQ        -1.1659  -22.7225  -22.4568 C.3         1 DSK       0.1114
     18 CAR        -2.3392  -20.6269  -21.3876 C.3         1 DSK       0.1137
     19 CAS        -2.0974  -21.4826  -22.6678 C.3         1 DSK       0.1119
     20 CAT        -1.6976  -14.9130  -19.2356 C.3         1 DSK       0.1349
     21 CAU        -1.5227  -15.7654  -20.5309 C.3         1 DSK       0.1711
     22 SAV        -1.2565  -17.5021  -20.0458 S.3         1 DSK       0.0029
     23 H1         -0.6967  -21.4864  -25.4274 H           1 DSK       0.2095
     24 H2          0.4076  -16.7695  -22.4109 H           1 DSK       0.2096
     25 H3         -1.7762  -22.7646  -25.1214 H           1 DSK       0.2100
     26 H4         -1.1091  -18.7999  -22.4442 H           1 DSK       0.2101
     27 H5          0.4994  -14.6867  -17.5883 H           1 DSK       0.2101
     28 H6          0.2944  -21.6204  -21.8452 H           1 DSK       0.2100
     29 H7         -4.1266  -21.2805  -20.9942 H           1 DSK       0.2100
     30 H8         -3.4723  -21.4942  -24.0490 H           1 DSK       0.2100
     31 H9         -3.1075  -13.9500  -18.3277 H           1 DSK       0.2101
     32 H10         1.3767  -22.1950  -23.6644 H           1 DSK       0.0584
     33 H11         1.1229  -23.0913  -25.1557 H           1 DSK       0.0584
     34 H12        -0.5192  -14.2515  -21.7279 H           1 DSK       0.0608
     35 H13         0.5990  -15.3247  -20.8749 H           1 DSK       0.0608
     36 H14        -3.1752  -18.8782  -19.5622 H           1 DSK       0.0867
     37 H15        -3.6354  -17.4962  -20.5464 H           1 DSK       0.0867
     38 H16        -2.4872  -17.3144  -17.9538 H           1 DSK       0.0867
     39 H17        -0.8087  -17.8314  -17.7219 H           1 DSK       0.0867
     40 H18        -0.0609  -24.2616  -23.4642 H           1 DSK       0.0643
     41 H19        -3.8652  -19.2297  -22.0794 H           1 DSK       0.0667
     42 H20        -1.4561  -15.3456  -17.1027 H           1 DSK       0.0668
     43 H21        -1.7724  -23.5180  -22.0100 H           1 DSK       0.0647
     44 H22        -1.3965  -20.5348  -20.8443 H           1 DSK       0.0647
     45 H23        -1.6418  -20.8487  -23.4182 H           1 DSK       0.0647
     46 H24        -1.2304  -13.9291  -19.3272 H           1 DSK       0.0672
     47 H25        -2.4205  -15.6757  -21.1475 H           1 DSK       0.0928
@<TRIPOS>BOND
     1    10     1   1
     2    11     2   1
     3    14     3   1
     4    15     4   1
     5    16     5   1
     6    17     6   1
     7    18     7   1
     8    19     8   1
     9    20     9   1
    10    14    10   1
    11    21    11   1
    12    12    15   1
    13    22    12   1
    14    16    13   1
    15    13    22   1
    16    17    14   1
    17    15    18   1
    18    20    16   1
    19    19    17   1
    20    18    19   1
    21    20    21   1
    22    21    22   1
    23     1    23   1
    24     2    24   1
    25     3    25   1
    26     4    26   1
    27     5    27   1
    28     6    28   1
    29     7    29   1
    30     8    30   1
    31     9    31   1
    32    10    32   1
    33    10    33   1
    34    11    34   1
    35    11    35   1
    36    12    36   1
    37    12    37   1
    38    13    38   1
    39    13    39   1
    40    14    40   1
    41    15    41   1
    42    16    42   1
    43    17    43   1
    44    18    44   1
    45    19    45   1
    46    20    46   1
    47    21    47   1
@<TRIPOS>SUBSTRUCTURE
     1  DSK     10

