@<TRIPOS>MOLECULE
3l4u_ligand_028
    47    47
SMALL
GAST_HUCK
****
This file was generated by PARSER (from files_GN.cpp)

@<TRIPOS>ATOM
      1 OAA         2.4905  -15.6968  -20.6681 O.3         1 DSK      -0.3924
      2 OAB        -4.6704  -22.5516  -17.5852 O.3         1 DSK      -0.3900
      3 OAC         0.3307  -13.9301  -19.8587 O.3         1 DSK      -0.3869
      4 OAD        -2.8788  -17.4422  -19.0747 O.3         1 DSK      -0.3845
      5 OAE        -1.0809  -22.2637  -22.5758 O.3         1 DSK      -0.3844
      6 OAF        -0.8445  -16.0620  -22.5991 O.3         1 DSK      -0.3865
      7 OAG        -1.7603  -18.3001  -21.9775 O.3         1 DSK      -0.3864
      8 OAH        -0.3438  -16.7240  -18.9953 O.3         1 DSK      -0.3865
      9 OAI        -4.0573  -22.1745  -22.0072 O.3         1 DSK      -0.3840
     10 CAJ         1.7857  -14.8725  -21.5954 C.3         1 DSK       0.0727
     11 CAK        -4.1790  -23.0513  -18.8263 C.3         1 DSK       0.0944
     12 CAL        -2.0375  -19.6650  -18.5245 C.3         1 DSK       0.1385
     13 CAM        -0.8399  -21.7772  -20.1859 C.3         1 DSK       0.1386
     14 CAN         0.3322  -14.5539  -21.1424 C.3         1 DSK       0.1065
     15 CAO        -2.3835  -18.6467  -19.6621 C.3         1 DSK       0.1280
     16 CAP        -1.7301  -21.6997  -21.4390 C.3         1 DSK       0.1303
     17 CAQ        -0.6876  -15.7373  -21.2136 C.3         1 DSK       0.1114
     18 CAR        -1.2236  -18.2935  -20.6532 C.3         1 DSK       0.1137
     19 CAS        -0.3408  -17.0203  -20.3912 C.3         1 DSK       0.1119
     20 CAT        -3.0272  -22.4363  -21.0550 C.3         1 DSK       0.1349
     21 CAU        -3.4224  -21.9589  -19.6269 C.3         1 DSK       0.1711
     22 SAV        -1.8991  -21.4766  -18.7546 S.3         1 DSK       0.0029
     23 H1          3.4468  -15.6100  -20.8881 H           1 DSK       0.2095
     24 H2         -5.3603  -21.8997  -17.8261 H           1 DSK       0.2096
     25 H3          1.1836  -14.1567  -19.4319 H           1 DSK       0.2100
     26 H4         -3.1819  -16.8901  -19.8266 H           1 DSK       0.2101
     27 H5         -0.3847  -21.6081  -22.8076 H           1 DSK       0.2101
     28 H6         -1.4378  -15.3759  -22.9610 H           1 DSK       0.2100
     29 H7         -1.0871  -18.7703  -22.5073 H           1 DSK       0.2100
     30 H8          0.4060  -16.1127  -18.8503 H           1 DSK       0.2100
     31 H9         -4.8049  -22.7518  -21.7437 H           1 DSK       0.2101
     32 H10         1.7720  -15.3723  -22.5653 H           1 DSK       0.0584
     33 H11         2.3410  -13.9379  -21.7001 H           1 DSK       0.0584
     34 H12        -5.0285  -23.4163  -19.4078 H           1 DSK       0.0608
     35 H13        -3.5190  -23.8959  -18.6162 H           1 DSK       0.0608
     36 H14        -2.8181  -19.5654  -17.7675 H           1 DSK       0.0867
     37 H15        -1.1100  -19.3503  -18.0469 H           1 DSK       0.0867
     38 H16         0.0181  -21.1110  -20.2160 H           1 DSK       0.0867
     39 H17        -0.4518  -22.7942  -20.0897 H           1 DSK       0.0867
     40 H18        -0.0460  -13.7848  -21.8237 H           1 DSK       0.0643
     41 H19        -3.2222  -19.0584  -20.2235 H           1 DSK       0.0667
     42 H20        -1.9680  -20.6667  -21.6846 H           1 DSK       0.0668
     43 H21        -1.6534  -15.3691  -20.8592 H           1 DSK       0.0647
     44 H22        -0.5307  -19.1256  -20.6352 H           1 DSK       0.0647
     45 H23         0.6830  -17.2964  -20.6484 H           1 DSK       0.0647
     46 H24        -2.8271  -23.5129  -21.0601 H           1 DSK       0.0672
     47 H25        -4.0856  -21.0969  -19.7056 H           1 DSK       0.0928
@<TRIPOS>BOND
     1    10     1   1
     2    11     2   1
     3    14     3   1
     4    15     4   1
     5    16     5   1
     6    17     6   1
     7    18     7   1
     8    19     8   1
     9    20     9   1
    10    14    10   1
    11    21    11   1
    12    12    15   1
    13    22    12   1
    14    16    13   1
    15    13    22   1
    16    17    14   1
    17    15    18   1
    18    20    16   1
    19    19    17   1
    20    18    19   1
    21    20    21   1
    22    21    22   1
    23     1    23   1
    24     2    24   1
    25     3    25   1
    26     4    26   1
    27     5    27   1
    28     6    28   1
    29     7    29   1
    30     8    30   1
    31     9    31   1
    32    10    32   1
    33    10    33   1
    34    11    34   1
    35    11    35   1
    36    12    36   1
    37    12    37   1
    38    13    38   1
    39    13    39   1
    40    14    40   1
    41    15    41   1
    42    16    42   1
    43    17    43   1
    44    18    44   1
    45    19    45   1
    46    20    46   1
    47    21    47   1
@<TRIPOS>SUBSTRUCTURE
     1  DSK     10

