@<TRIPOS>MOLECULE
3l4u_ligand_033
    47    47
SMALL
GAST_HUCK
****
This file was generated by PARSER (from files_GN.cpp)

@<TRIPOS>ATOM
      1 OAA         2.5768  -15.4501  -21.9844 O.3         1 DSK      -0.3924
      2 OAB        -4.9732  -22.1326  -18.1454 O.3         1 DSK      -0.3900
      3 OAC         0.0872  -16.1715  -22.7974 O.3         1 DSK      -0.3869
      4 OAD        -3.7032  -17.3618  -17.5454 O.3         1 DSK      -0.3845
      5 OAE         0.1718  -22.3520  -19.6317 O.3         1 DSK      -0.3844
      6 OAF        -2.1461  -16.2944  -21.2509 O.3         1 DSK      -0.3865
      7 OAG        -0.4789  -17.0992  -17.9286 O.3         1 DSK      -0.3864
      8 OAH        -2.0617  -14.0645  -19.1157 O.3         1 DSK      -0.3865
      9 OAI        -2.1140  -20.7661  -21.6962 O.3         1 DSK      -0.3840
     10 CAJ         1.5071  -15.1982  -21.0768 C.3         1 DSK       0.0727
     11 CAK        -3.7596  -22.4592  -18.8197 C.3         1 DSK       0.0944
     12 CAL        -2.5430  -18.4918  -19.4047 C.3         1 DSK       0.1385
     13 CAM        -0.9805  -20.6341  -18.3483 C.3         1 DSK       0.1386
     14 CAN         0.2445  -16.0505  -21.3788 C.3         1 DSK       0.1065
     15 CAO        -2.8496  -17.1440  -18.6751 C.3         1 DSK       0.1280
     16 CAP        -0.6601  -21.1969  -19.7493 C.3         1 DSK       0.1303
     17 CAQ        -1.0746  -15.4530  -20.8191 C.3         1 DSK       0.1114
     18 CAR        -1.5986  -16.2839  -18.2773 C.3         1 DSK       0.1137
     19 CAS        -1.1587  -15.1629  -19.2857 C.3         1 DSK       0.1119
     20 CAT        -1.9881  -21.5280  -20.4887 C.3         1 DSK       0.1349
     21 CAU        -3.1914  -21.2167  -19.5545 C.3         1 DSK       0.1711
     22 SAV        -2.6599  -19.9760  -18.3418 S.3         1 DSK       0.0029
     23 H1          2.5971  -16.4218  -22.1071 H           1 DSK       0.2095
     24 H2         -5.2660  -22.9640  -17.7134 H           1 DSK       0.2096
     25 H3          0.7255  -16.8619  -23.0609 H           1 DSK       0.2100
     26 H4         -4.0687  -16.4763  -17.3078 H           1 DSK       0.2101
     27 H5          0.4799  -22.5347  -20.5439 H           1 DSK       0.2101
     28 H6         -2.6842  -15.7533  -21.8777 H           1 DSK       0.2100
     29 H7          0.1359  -16.5017  -17.4461 H           1 DSK       0.2100
     30 H8         -1.8451  -13.7004  -18.2307 H           1 DSK       0.2100
     31 H9         -1.2255  -20.7583  -22.1107 H           1 DSK       0.2101
     32 H10         1.2775  -14.1354  -21.1494 H           1 DSK       0.0584
     33 H11         1.8595  -15.4059  -20.0662 H           1 DSK       0.0584
     34 H12        -3.9810  -23.2413  -19.5463 H           1 DSK       0.0608
     35 H13        -3.0426  -22.8502  -18.0961 H           1 DSK       0.0608
     36 H14        -1.5699  -18.4535  -19.8911 H           1 DSK       0.0867
     37 H15        -3.2693  -18.6010  -20.2095 H           1 DSK       0.0867
     38 H16        -0.2691  -19.8646  -18.0442 H           1 DSK       0.0867
     39 H17        -0.9507  -21.4341  -17.6058 H           1 DSK       0.0867
     40 H18         0.3826  -17.0549  -20.9741 H           1 DSK       0.0643
     41 H19        -3.4715  -16.5355  -19.3338 H           1 DSK       0.0667
     42 H20        -0.0963  -20.4430  -20.3057 H           1 DSK       0.0668
     43 H21        -1.2057  -14.4952  -21.3349 H           1 DSK       0.0647
     44 H22        -1.8549  -15.7669  -17.3459 H           1 DSK       0.0647
     45 H23        -0.1823  -14.7822  -18.9667 H           1 DSK       0.0647
     46 H24        -2.0045  -22.5799  -20.7866 H           1 DSK       0.0672
     47 H25        -4.0215  -20.8070  -20.1361 H           1 DSK       0.0928
@<TRIPOS>BOND
     1    10     1   1
     2    11     2   1
     3    14     3   1
     4    15     4   1
     5    16     5   1
     6    17     6   1
     7    18     7   1
     8    19     8   1
     9    20     9   1
    10    14    10   1
    11    21    11   1
    12    12    15   1
    13    22    12   1
    14    16    13   1
    15    13    22   1
    16    17    14   1
    17    15    18   1
    18    20    16   1
    19    19    17   1
    20    18    19   1
    21    20    21   1
    22    21    22   1
    23     1    23   1
    24     2    24   1
    25     3    25   1
    26     4    26   1
    27     5    27   1
    28     6    28   1
    29     7    29   1
    30     8    30   1
    31     9    31   1
    32    10    32   1
    33    10    33   1
    34    11    34   1
    35    11    35   1
    36    12    36   1
    37    12    37   1
    38    13    38   1
    39    13    39   1
    40    14    40   1
    41    15    41   1
    42    16    42   1
    43    17    43   1
    44    18    44   1
    45    19    45   1
    46    20    46   1
    47    21    47   1
@<TRIPOS>SUBSTRUCTURE
     1  DSK     10

