@<TRIPOS>MOLECULE
3l4u_ligand_074
    47    47
SMALL
GAST_HUCK
****
This file was generated by PARSER (from files_GN.cpp)

@<TRIPOS>ATOM
      1 OAA         2.1039  -16.8831  -20.5427 O.3         1 DSK      -0.3924
      2 OAB         0.0201  -22.6337  -21.6026 O.3         1 DSK      -0.3900
      3 OAC         0.5315  -14.4696  -20.0120 O.3         1 DSK      -0.3869
      4 OAD        -3.1038  -17.0386  -18.3614 O.3         1 DSK      -0.3845
      5 OAE        -2.2957  -21.9069  -23.2071 O.3         1 DSK      -0.3844
      6 OAF         0.2820  -15.8496  -23.4213 O.3         1 DSK      -0.3865
      7 OAG        -0.1310  -17.0147  -19.5345 O.3         1 DSK      -0.3864
      8 OAH        -1.3484  -17.5790  -22.3522 O.3         1 DSK      -0.3865
      9 OAI        -4.1190  -22.3727  -20.0751 O.3         1 DSK      -0.3840
     10 CAJ         2.2688  -15.6787  -21.2927 C.3         1 DSK       0.0727
     11 CAK        -0.4067  -22.5359  -20.2478 C.3         1 DSK       0.0944
     12 CAL        -2.1617  -19.0485  -19.2375 C.3         1 DSK       0.1385
     13 CAM        -2.9153  -20.0265  -21.7410 C.3         1 DSK       0.1386
     14 CAN         0.9753  -14.8023  -21.3288 C.3         1 DSK       0.1065
     15 CAO        -2.5373  -17.5683  -19.5702 C.3         1 DSK       0.1280
     16 CAP        -3.1682  -21.4967  -22.1487 C.3         1 DSK       0.1303
     17 CAQ        -0.2296  -15.3282  -22.1830 C.3         1 DSK       0.1114
     18 CAR        -1.3986  -16.5915  -20.0568 C.3         1 DSK       0.1137
     19 CAS        -1.3249  -16.3389  -21.6188 C.3         1 DSK       0.1119
     20 CAT        -2.9318  -22.3469  -20.8775 C.3         1 DSK       0.1349
     21 CAU        -1.7345  -21.7444  -20.0793 C.3         1 DSK       0.1711
     22 SAV        -1.4924  -20.0163  -20.6242 S.3         1 DSK       0.0029
     23 H1          2.6875  -17.5341  -21.0014 H           1 DSK       0.2095
     24 H2          0.1672  -21.7036  -21.9006 H           1 DSK       0.2096
     25 H3          1.3355  -14.1206  -19.5605 H           1 DSK       0.2100
     26 H4         -3.7369  -16.3436  -18.6371 H           1 DSK       0.2101
     27 H5         -2.6693  -21.5117  -24.0304 H           1 DSK       0.2101
     28 H6          0.9067  -16.5605  -23.1387 H           1 DSK       0.2100
     29 H7          0.2164  -17.6325  -20.2097 H           1 DSK       0.2100
     30 H8         -0.4247  -17.9096  -22.2726 H           1 DSK       0.2100
     31 H9         -4.2850  -21.4375  -19.8177 H           1 DSK       0.2101
     32 H10         2.5690  -15.9264  -22.3216 H           1 DSK       0.0584
     33 H11         3.0673  -15.0896  -20.8264 H           1 DSK       0.0584
     34 H12         0.3853  -22.0654  -19.6635 H           1 DSK       0.0608
     35 H13        -0.5449  -23.5512  -19.8711 H           1 DSK       0.0608
     36 H14        -3.0370  -19.5602  -18.8398 H           1 DSK       0.0867
     37 H15        -1.4057  -19.0458  -18.4529 H           1 DSK       0.0867
     38 H16        -3.8214  -19.6363  -21.2629 H           1 DSK       0.0867
     39 H17        -2.6838  -19.3773  -22.5910 H           1 DSK       0.0867
     40 H18         1.2737  -13.8492  -21.7864 H           1 DSK       0.0643
     41 H19        -3.3439  -17.5677  -20.3147 H           1 DSK       0.0667
     42 H20        -4.1960  -21.6221  -22.5020 H           1 DSK       0.0668
     43 H21        -0.7769  -14.4188  -22.4615 H           1 DSK       0.0647
     44 H22        -1.6001  -15.6042  -19.6056 H           1 DSK       0.0647
     45 H23        -2.2912  -15.8655  -21.8718 H           1 DSK       0.0647
     46 H24        -2.7352  -23.3836  -21.1566 H           1 DSK       0.0672
     47 H25        -1.9730  -21.7556  -19.0085 H           1 DSK       0.0928
@<TRIPOS>BOND
     1    10     1   1
     2    11     2   1
     3    14     3   1
     4    15     4   1
     5    16     5   1
     6    17     6   1
     7    18     7   1
     8    19     8   1
     9    20     9   1
    10    14    10   1
    11    21    11   1
    12    12    15   1
    13    22    12   1
    14    16    13   1
    15    13    22   1
    16    17    14   1
    17    15    18   1
    18    20    16   1
    19    19    17   1
    20    18    19   1
    21    20    21   1
    22    21    22   1
    23     1    23   1
    24     2    24   1
    25     3    25   1
    26     4    26   1
    27     5    27   1
    28     6    28   1
    29     7    29   1
    30     8    30   1
    31     9    31   1
    32    10    32   1
    33    10    33   1
    34    11    34   1
    35    11    35   1
    36    12    36   1
    37    12    37   1
    38    13    38   1
    39    13    39   1
    40    14    40   1
    41    15    41   1
    42    16    42   1
    43    17    43   1
    44    18    44   1
    45    19    45   1
    46    20    46   1
    47    21    47   1
@<TRIPOS>SUBSTRUCTURE
     1  DSK     10

