@<TRIPOS>MOLECULE
3l4u_ligand_036
    47    47
SMALL
GAST_HUCK
****
This file was generated by PARSER (from files_GN.cpp)

@<TRIPOS>ATOM
      1 OAA        -5.5817  -21.0355  -22.9129 O.3         1 DSK      -0.3924
      2 OAB         2.0313  -15.3280  -22.0007 O.3         1 DSK      -0.3900
      3 OAC        -5.8329  -23.0147  -20.5303 O.3         1 DSK      -0.3869
      4 OAD        -2.8954  -18.9612  -22.6289 O.3         1 DSK      -0.3845
      5 OAE        -2.2620  -15.2272  -17.5247 O.3         1 DSK      -0.3844
      6 OAF        -3.9141  -21.7456  -19.1850 O.3         1 DSK      -0.3865
      7 OAG        -2.0761  -19.7083  -19.1784 O.3         1 DSK      -0.3864
      8 OAH        -2.2134  -21.4224  -22.4373 O.3         1 DSK      -0.3865
      9 OAI        -1.0231  -13.3597  -19.5136 O.3         1 DSK      -0.3840
     10 CAJ        -5.1701  -22.3924  -22.7571 C.3         1 DSK       0.0727
     11 CAK         1.5571  -14.9737  -20.6976 C.3         1 DSK       0.0944
     12 CAL        -1.3155  -17.5134  -21.6003 C.3         1 DSK       0.1385
     13 CAM        -1.2196  -17.0051  -18.8333 C.3         1 DSK       0.1386
     14 CAN        -4.6782  -22.6848  -21.3072 C.3         1 DSK       0.1065
     15 CAO        -2.3558  -18.6413  -21.3436 C.3         1 DSK       0.1280
     16 CAP        -1.7542  -15.5665  -18.8109 C.3         1 DSK       0.1303
     17 CAQ        -3.9070  -21.5125  -20.6063 C.3         1 DSK       0.1114
     18 CAR        -1.8214  -19.9037  -20.5804 C.3         1 DSK       0.1137
     19 CAS        -2.4121  -21.2860  -21.0299 C.3         1 DSK       0.1119
     20 CAT        -0.5735  -14.6804  -19.2484 C.3         1 DSK       0.1349
     21 CAU         0.0619  -15.3514  -20.4917 C.3         1 DSK       0.1711
     22 SAV        -0.1214  -17.1521  -20.2691 S.3         1 DSK       0.0029
     23 H1         -5.0709  -20.7100  -23.6861 H           1 DSK       0.2095
     24 H2          1.7050  -16.2386  -22.1488 H           1 DSK       0.2096
     25 H3         -6.1011  -23.9143  -20.8212 H           1 DSK       0.2100
     26 H4         -3.7415  -19.4256  -22.4495 H           1 DSK       0.2101
     27 H5         -1.5553  -14.6753  -17.1184 H           1 DSK       0.2101
     28 H6         -4.8560  -21.6855  -18.9095 H           1 DSK       0.2100
     29 H7         -1.3919  -20.2613  -18.7098 H           1 DSK       0.2100
     30 H8         -1.3236  -21.0426  -22.5986 H           1 DSK       0.2100
     31 H9         -1.5669  -13.1388  -18.7278 H           1 DSK       0.2101
     32 H10        -4.3819  -22.6105  -23.4862 H           1 DSK       0.0584
     33 H11        -6.0173  -23.0508  -23.0016 H           1 DSK       0.0584
     34 H12         1.6802  -13.8899  -20.5912 H           1 DSK       0.0608
     35 H13         2.1872  -15.4703  -19.9545 H           1 DSK       0.0608
     36 H14        -1.8678  -16.6112  -21.8674 H           1 DSK       0.0867
     37 H15        -0.7101  -17.7849  -22.4681 H           1 DSK       0.0867
     38 H16        -2.0396  -17.7465  -18.8387 H           1 DSK       0.0867
     39 H17        -0.6083  -17.1783  -17.9443 H           1 DSK       0.0867
     40 H18        -4.0310  -23.5773  -21.3303 H           1 DSK       0.0643
     41 H19        -3.1811  -18.2133  -20.7635 H           1 DSK       0.0667
     42 H20        -2.5759  -15.4748  -19.5271 H           1 DSK       0.0668
     43 H21        -4.4799  -20.5913  -20.7680 H           1 DSK       0.0647
     44 H22        -0.7376  -19.9469  -20.7021 H           1 DSK       0.0647
     45 H23        -1.8020  -22.0658  -20.5618 H           1 DSK       0.0647
     46 H24         0.1604  -14.6433  -18.4364 H           1 DSK       0.0672
     47 H25        -0.4776  -15.0143  -21.3794 H           1 DSK       0.0928
@<TRIPOS>BOND
     1    10     1   1
     2    11     2   1
     3    14     3   1
     4    15     4   1
     5    16     5   1
     6    17     6   1
     7    18     7   1
     8    19     8   1
     9    20     9   1
    10    14    10   1
    11    21    11   1
    12    12    15   1
    13    22    12   1
    14    16    13   1
    15    13    22   1
    16    17    14   1
    17    15    18   1
    18    20    16   1
    19    19    17   1
    20    18    19   1
    21    20    21   1
    22    21    22   1
    23     1    23   1
    24     2    24   1
    25     3    25   1
    26     4    26   1
    27     5    27   1
    28     6    28   1
    29     7    29   1
    30     8    30   1
    31     9    31   1
    32    10    32   1
    33    10    33   1
    34    11    34   1
    35    11    35   1
    36    12    36   1
    37    12    37   1
    38    13    38   1
    39    13    39   1
    40    14    40   1
    41    15    41   1
    42    16    42   1
    43    17    43   1
    44    18    44   1
    45    19    45   1
    46    20    46   1
    47    21    47   1
@<TRIPOS>SUBSTRUCTURE
     1  DSK     10

