@<TRIPOS>MOLECULE
3l4w_ligand_009
    32    32
SMALL
GAST_HUCK
****
This file was generated by PARSER (from files_GN.cpp)

@<TRIPOS>ATOM
      1 OAA        42.8872   94.6281   37.3852 O.3         1 MIG      -0.3898
      2 OAB        48.0538   93.6247   34.3073 O.3         1 MIG      -0.3894
      3 OAC        42.5792   89.6575   34.6146 O.3         1 MIG      -0.3838
      4 OAD        44.2569   89.8331   32.2423 O.3         1 MIG      -0.3862
      5 OAE        46.5767   91.3896   32.4509 O.3         1 MIG      -0.3835
      6 CAF        43.7889   93.5876   37.7706 C.3         1 MIG       0.0841
      7 CAG        46.6420   93.7888   34.1031 C.3         1 MIG       0.0894
      8 CAH        44.9351   93.4146   36.7320 C.3         1 MIG      -0.0076
      9 CAI        43.7348   91.5642   35.6073 C.3         1 MIG      -0.0022
     10 CAJ        43.3320   90.8344   34.3094 C.3         1 MIG       0.1231
     11 CAK        44.5924   90.4543   33.4910 C.3         1 MIG       0.1171
     12 CAL        45.4251   91.7340   33.2270 C.3         1 MIG       0.1281
     13 CAM        45.8179   92.5094   34.5367 C.3         1 MIG       0.0319
     14 NAN        44.5941   92.7811   35.3985 N.4         1 MIG       0.2444
     15 H1         42.6168   94.4100   36.4678 H           1 MIG       0.2096
     16 H2         48.2369   93.9816   35.2084 H           1 MIG       0.2097
     17 H3         43.1752   89.1083   35.1731 H           1 MIG       0.2101
     18 H4         43.2770   89.8040   32.1903 H           1 MIG       0.2100
     19 H5         46.8425   90.4901   32.7308 H           1 MIG       0.2102
     20 H6         43.2310   92.6514   37.9111 H           1 MIG       0.0610
     21 H7         44.2040   93.8497   38.7489 H           1 MIG       0.0610
     22 H8         46.5224   94.0003   33.0265 H           1 MIG       0.0614
     23 H9         46.3075   94.6928   34.6207 H           1 MIG       0.0614
     24 H10        45.7261   92.8347   37.2282 H           1 MIG       0.0837
     25 H11        45.3265   94.4187   36.5741 H           1 MIG       0.0837
     26 H12        44.2463   90.8549   36.2643 H           1 MIG       0.0841
     27 H13        42.7968   91.8465   36.0734 H           1 MIG       0.0841
     28 H14        42.6984   91.4920   33.7141 H           1 MIG       0.0674
     29 H15        45.1968   89.7385   34.0639 H           1 MIG       0.0649
     30 H16        44.8146   92.3930   32.5957 H           1 MIG       0.0678
     31 H17        46.4859   91.8513   35.1027 H           1 MIG       0.0901
     32 H18        44.0461   93.4581   34.8599 H           1 MIG       0.2040
@<TRIPOS>BOND
     1     6     1   1
     2     7     2   1
     3    10     3   1
     4    11     4   1
     5    12     5   1
     6     8     6   1
     7    13     7   1
     8    14     8   1
     9    10     9   1
    10     9    14   1
    11    11    10   1
    12    12    11   1
    13    12    13   1
    14    13    14   1
    15     1    15   1
    16     2    16   1
    17     3    17   1
    18     4    18   1
    19     5    19   1
    20     6    20   1
    21     6    21   1
    22     7    22   1
    23     7    23   1
    24     8    24   1
    25     8    25   1
    26     9    26   1
    27     9    27   1
    28    10    28   1
    29    11    29   1
    30    12    30   1
    31    13    31   1
    32    14    32   1
@<TRIPOS>SUBSTRUCTURE
     1  MIG      6

