@<TRIPOS>MOLECULE
3l4w_ligand_004
    32    32
SMALL
GAST_HUCK
****
This file was generated by PARSER (from files_GN.cpp)

@<TRIPOS>ATOM
      1 OAA        41.8694   95.1105   35.2390 O.3         1 MIG      -0.3898
      2 OAB        46.6912   94.6112   35.9119 O.3         1 MIG      -0.3894
      3 OAC        43.9372   89.9474   32.4254 O.3         1 MIG      -0.3838
      4 OAD        46.5697   91.0564   32.4238 O.3         1 MIG      -0.3862
      5 OAE        47.4421   92.1954   34.9151 O.3         1 MIG      -0.3835
      6 CAF        41.4558   93.7694   35.4754 C.3         1 MIG       0.0841
      7 CAG        45.4093   94.0757   36.2140 C.3         1 MIG       0.0894
      8 CAH        42.5897   92.9191   36.1133 C.3         1 MIG      -0.0076
      9 CAI        43.3596   91.3239   34.3849 C.3         1 MIG      -0.0022
     10 CAJ        44.2707   91.1333   33.1515 C.3         1 MIG       0.1231
     11 CAK        45.7533   91.1060   33.5888 C.3         1 MIG       0.1171
     12 CAL        46.1105   92.3724   34.4032 C.3         1 MIG       0.1281
     13 CAM        45.1043   92.6829   35.5733 C.3         1 MIG       0.0319
     14 NAN        43.6636   92.6061   35.1023 N.4         1 MIG       0.2444
     15 H1         41.1132   95.5284   34.7623 H           1 MIG       0.2096
     16 H2         47.0633   94.8513   36.7911 H           1 MIG       0.2097
     17 H3         43.3586   89.4153   33.0147 H           1 MIG       0.2101
     18 H4         47.4881   91.1864   32.7430 H           1 MIG       0.2100
     19 H5         47.8881   93.0639   34.8453 H           1 MIG       0.2102
     20 H6         41.1456   93.3382   34.5247 H           1 MIG       0.0610
     21 H7         40.5866   93.7904   36.1329 H           1 MIG       0.0610
     22 H8         44.6967   94.8278   35.8796 H           1 MIG       0.0614
     23 H9         45.3294   93.9821   37.2978 H           1 MIG       0.0614
     24 H10        42.1583   92.0095   36.5300 H           1 MIG       0.0837
     25 H11        42.9776   93.4741   36.9637 H           1 MIG       0.0837
     26 H12        43.4767   90.4719   35.0644 H           1 MIG       0.0841
     27 H13        42.3234   91.3231   34.0295 H           1 MIG       0.0841
     28 H14        44.1191   91.9760   32.4686 H           1 MIG       0.0674
     29 H15        45.9478   90.2115   34.1891 H           1 MIG       0.0649
     30 H16        46.1163   93.2238   33.7127 H           1 MIG       0.0678
     31 H17        45.2593   91.9059   36.3372 H           1 MIG       0.0901
     32 H18        43.5916   93.3299   34.3928 H           1 MIG       0.2040
@<TRIPOS>BOND
     1     6     1   1
     2     7     2   1
     3    10     3   1
     4    11     4   1
     5    12     5   1
     6     8     6   1
     7    13     7   1
     8    14     8   1
     9    10     9   1
    10     9    14   1
    11    11    10   1
    12    12    11   1
    13    12    13   1
    14    13    14   1
    15     1    15   1
    16     2    16   1
    17     3    17   1
    18     4    18   1
    19     5    19   1
    20     6    20   1
    21     6    21   1
    22     7    22   1
    23     7    23   1
    24     8    24   1
    25     8    25   1
    26     9    26   1
    27     9    27   1
    28    10    28   1
    29    11    29   1
    30    12    30   1
    31    13    31   1
    32    14    32   1
@<TRIPOS>SUBSTRUCTURE
     1  MIG      6

