@<TRIPOS>MOLECULE
3l4w_ligand_018
    32    32
SMALL
GAST_HUCK
****
This file was generated by PARSER (from files_GN.cpp)

@<TRIPOS>ATOM
      1 OAA        47.7424   94.4955   34.9394 O.3         1 MIG      -0.3898
      2 OAB        42.8993   93.7838   37.1855 O.3         1 MIG      -0.3894
      3 OAC        46.6458   91.0920   32.2309 O.3         1 MIG      -0.3838
      4 OAD        43.9196   90.2291   32.4781 O.3         1 MIG      -0.3862
      5 OAE        42.3313   91.9709   34.2434 O.3         1 MIG      -0.3835
      6 CAF        46.9609   94.6022   36.1373 C.3         1 MIG       0.0841
      7 CAG        43.5220   92.5270   36.9075 C.3         1 MIG       0.0894
      8 CAH        46.5558   93.1852   36.6441 C.3         1 MIG      -0.0076
      9 CAI        46.5054   92.2103   34.3867 C.3         1 MIG      -0.0022
     10 CAJ        45.9458   91.0815   33.4787 C.3         1 MIG       0.1231
     11 CAK        44.4357   91.3327   33.2141 C.3         1 MIG       0.1171
     12 CAL        43.6646   91.5329   34.5527 C.3         1 MIG       0.1281
     13 CAM        44.3259   92.5478   35.5573 C.3         1 MIG       0.0319
     14 NAN        45.8052   92.2865   35.7142 N.4         1 MIG       0.2444
     15 H1         48.6661   94.2821   35.2870 H           1 MIG       0.2096
     16 H2         43.6310   94.4302   37.2703 H           1 MIG       0.2097
     17 H3         46.8514   90.1427   32.0469 H           1 MIG       0.2101
     18 H4         42.9508   90.2575   32.6261 H           1 MIG       0.2100
     19 H5         42.4576   92.8455   33.8084 H           1 MIG       0.2102
     20 H6         46.0687   95.2138   35.9378 H           1 MIG       0.0610
     21 H7         47.5564   95.1065   36.9235 H           1 MIG       0.0610
     22 H8         42.7072   91.7856   36.9054 H           1 MIG       0.0614
     23 H9         44.1728   92.2592   37.7559 H           1 MIG       0.0614
     24 H10        45.9867   93.3152   37.5681 H           1 MIG       0.0837
     25 H11        47.4766   92.6699   36.9483 H           1 MIG       0.0837
     26 H12        46.3798   93.1399   33.8366 H           1 MIG       0.0841
     27 H13        47.5706   92.0178   34.5031 H           1 MIG       0.0841
     28 H14        46.0827   90.1076   33.9685 H           1 MIG       0.0674
     29 H15        44.3398   92.2308   32.6019 H           1 MIG       0.0649
     30 H16        43.5965   90.5516   35.0388 H           1 MIG       0.0678
     31 H17        44.2082   93.5494   35.1176 H           1 MIG       0.0901
     32 H18        45.8708   91.3494   36.1155 H           1 MIG       0.2040
@<TRIPOS>BOND
     1     6     1   1
     2     7     2   1
     3    10     3   1
     4    11     4   1
     5    12     5   1
     6     8     6   1
     7    13     7   1
     8    14     8   1
     9    10     9   1
    10     9    14   1
    11    11    10   1
    12    12    11   1
    13    12    13   1
    14    13    14   1
    15     1    15   1
    16     2    16   1
    17     3    17   1
    18     4    18   1
    19     5    19   1
    20     6    20   1
    21     6    21   1
    22     7    22   1
    23     7    23   1
    24     8    24   1
    25     8    25   1
    26     9    26   1
    27     9    27   1
    28    10    28   1
    29    11    29   1
    30    12    30   1
    31    13    31   1
    32    14    32   1
@<TRIPOS>SUBSTRUCTURE
     1  MIG      6

