@<TRIPOS>MOLECULE
3l4w_ligand_015
    32    32
SMALL
GAST_HUCK
****
This file was generated by PARSER (from files_GN.cpp)

@<TRIPOS>ATOM
      1 OAA        47.2625   83.0688   32.7527 O.3         1 MIG      -0.3898
      2 OAB        47.1468   86.8162   29.9147 O.3         1 MIG      -0.3894
      3 OAC        43.8903   87.0135   35.1170 O.3         1 MIG      -0.3838
      4 OAD        42.5012   87.1413   32.6007 O.3         1 MIG      -0.3862
      5 OAE        43.6415   85.5916   30.4776 O.3         1 MIG      -0.3835
      6 CAF        48.1106   83.9787   33.4478 C.3         1 MIG       0.0841
      7 CAG        46.5967   85.5297   30.2130 C.3         1 MIG       0.0894
      8 CAH        48.0112   85.4532   32.9617 C.3         1 MIG      -0.0076
      9 CAI        45.8821   86.1520   34.0182 C.3         1 MIG      -0.0022
     10 CAJ        44.5827   86.9832   33.8694 C.3         1 MIG       0.1231
     11 CAK        43.6909   86.3602   32.7706 C.3         1 MIG       0.1171
     12 CAL        44.4683   86.2580   31.4354 C.3         1 MIG       0.1281
     13 CAM        45.8382   85.5030   31.5832 C.3         1 MIG       0.0319
     14 NAN        46.6519   86.0614   32.7323 N.4         1 MIG       0.2444
     15 H1         47.7477   82.8254   31.9354 H           1 MIG       0.2096
     16 H2         46.3795   87.3617   29.6317 H           1 MIG       0.2097
     17 H3         43.1845   87.6865   35.0031 H           1 MIG       0.2101
     18 H4         42.6385   87.6556   31.7746 H           1 MIG       0.2100
     19 H5         42.7430   85.9622   30.6096 H           1 MIG       0.2102
     20 H6         49.1397   83.6384   33.3429 H           1 MIG       0.0610
     21 H7         47.8567   83.9300   34.5094 H           1 MIG       0.0610
     22 H8         47.4118   84.8085   30.2268 H           1 MIG       0.0614
     23 H9         45.9433   85.2350   29.3920 H           1 MIG       0.0614
     24 H10        48.6188   85.5639   32.0661 H           1 MIG       0.0837
     25 H11        48.5159   86.0688   33.7138 H           1 MIG       0.0837
     26 H12        45.6191   85.1599   34.3843 H           1 MIG       0.0841
     27 H13        46.4920   86.6423   34.7835 H           1 MIG       0.0841
     28 H14        44.8425   88.0112   33.5941 H           1 MIG       0.0674
     29 H15        43.3822   85.3549   33.0844 H           1 MIG       0.0649
     30 H16        44.6641   87.2726   31.0806 H           1 MIG       0.0678
     31 H17        45.5949   84.4583   31.7995 H           1 MIG       0.0901
     32 H18        46.8420   87.0353   32.4738 H           1 MIG       0.2040
@<TRIPOS>BOND
     1     6     1   1
     2     7     2   1
     3    10     3   1
     4    11     4   1
     5    12     5   1
     6     8     6   1
     7    13     7   1
     8    14     8   1
     9    10     9   1
    10     9    14   1
    11    11    10   1
    12    12    11   1
    13    12    13   1
    14    13    14   1
    15     1    15   1
    16     2    16   1
    17     3    17   1
    18     4    18   1
    19     5    19   1
    20     6    20   1
    21     6    21   1
    22     7    22   1
    23     7    23   1
    24     8    24   1
    25     8    25   1
    26     9    26   1
    27     9    27   1
    28    10    28   1
    29    11    29   1
    30    12    30   1
    31    13    31   1
    32    14    32   1
@<TRIPOS>SUBSTRUCTURE
     1  MIG      6

