@<TRIPOS>MOLECULE
3l4w_ligand_008
    32    32
SMALL
GAST_HUCK
****
This file was generated by PARSER (from files_GN.cpp)

@<TRIPOS>ATOM
      1 OAA        47.6538   93.0620   37.0068 O.3         1 MIG      -0.3898
      2 OAB        47.1223   91.8537   31.9599 O.3         1 MIG      -0.3894
      3 OAC        42.9079   90.3624   36.8882 O.3         1 MIG      -0.3838
      4 OAD        42.8519   89.2721   34.2126 O.3         1 MIG      -0.3862
      5 OAE        45.0397   89.9514   32.5246 O.3         1 MIG      -0.3835
      6 CAF        47.4392   93.7055   35.7511 C.3         1 MIG       0.0841
      7 CAG        46.1911   92.6443   32.6858 C.3         1 MIG       0.0894
      8 CAH        45.9398   93.9703   35.4613 C.3         1 MIG      -0.0076
      9 CAI        44.5334   92.0459   36.1939 C.3         1 MIG      -0.0022
     10 CAJ        43.4071   91.0804   35.7600 C.3         1 MIG       0.1231
     11 CAK        43.9192   90.0948   34.6809 C.3         1 MIG       0.1171
     12 CAL        44.5397   90.8791   33.4920 C.3         1 MIG       0.1281
     13 CAM        45.6366   91.8976   33.9483 C.3         1 MIG       0.0319
     14 NAN        45.0800   92.8159   35.0202 N.4         1 MIG       0.2444
     15 H1         47.3870   93.7255   37.6760 H           1 MIG       0.2096
     16 H2         47.8277   91.6199   32.6010 H           1 MIG       0.2097
     17 H3         43.5099   89.5956   36.9900 H           1 MIG       0.2101
     18 H4         42.4693   88.8523   35.0140 H           1 MIG       0.2100
     19 H5         45.8625   89.5744   32.9003 H           1 MIG       0.2102
     20 H6         47.8888   93.0926   34.9726 H           1 MIG       0.0610
     21 H7         47.9668   94.6573   35.7605 H           1 MIG       0.0610
     22 H8         45.3753   92.9015   32.0120 H           1 MIG       0.0614
     23 H9         46.7146   93.5583   32.9357 H           1 MIG       0.0614
     24 H10        45.8759   94.7441   34.6966 H           1 MIG       0.0837
     25 H11        45.5118   94.4346   36.3550 H           1 MIG       0.0837
     26 H12        45.3313   91.4789   36.6778 H           1 MIG       0.0841
     27 H13        44.1083   92.7291   36.9308 H           1 MIG       0.0841
     28 H14        42.5810   91.6708   35.3559 H           1 MIG       0.0674
     29 H15        44.6830   89.4421   35.1209 H           1 MIG       0.0649
     30 H16        43.7317   91.4306   33.0045 H           1 MIG       0.0678
     31 H17        46.4667   91.3253   34.3789 H           1 MIG       0.0901
     32 H18        44.2821   93.2643   34.5625 H           1 MIG       0.2040
@<TRIPOS>BOND
     1     6     1   1
     2     7     2   1
     3    10     3   1
     4    11     4   1
     5    12     5   1
     6     8     6   1
     7    13     7   1
     8    14     8   1
     9    10     9   1
    10     9    14   1
    11    11    10   1
    12    12    11   1
    13    12    13   1
    14    13    14   1
    15     1    15   1
    16     2    16   1
    17     3    17   1
    18     4    18   1
    19     5    19   1
    20     6    20   1
    21     6    21   1
    22     7    22   1
    23     7    23   1
    24     8    24   1
    25     8    25   1
    26     9    26   1
    27     9    27   1
    28    10    28   1
    29    11    29   1
    30    12    30   1
    31    13    31   1
    32    14    32   1
@<TRIPOS>SUBSTRUCTURE
     1  MIG      6

