@<TRIPOS>MOLECULE
3l7b_ligand_008
    33    34
SMALL
GAST_HUCK
****
This file was generated by PARSER (from files_GN.cpp)

@<TRIPOS>ATOM
      1 C1         36.5375   25.2502   33.6402 C.3         1 DKZ       0.2111
      2 N1         37.8910   25.7925   33.8389 N.am        1 DKZ      -0.1467
      3 C2         35.4287   26.2452   34.1208 C.3         1 DKZ       0.1450
      4 N2         39.9557   26.5773   33.0692 N.am        1 DKZ      -0.1924
      5 O2         35.4896   26.4328   35.5381 O.3         1 DKZ      -0.3832
      6 C3         33.9990   25.7649   33.7339 C.3         1 DKZ       0.1601
      7 F3         33.0795   26.7511   34.0134 F           1 DKZ      -0.2398
      8 N3         41.6120   27.3344   34.5169 N.2         1 DKZ      -0.4291
      9 C4         33.9067   25.3793   32.2351 C.3         1 DKZ       0.1171
     10 O4         32.6084   24.8428   31.9503 O.3         1 DKZ      -0.3862
     11 C5         35.0098   24.3394   31.8923 C.3         1 DKZ       0.1138
     12 O5         36.3018   24.8583   32.2661 O.3         1 DKZ      -0.3357
     13 C6         35.0559   24.0214   30.3764 C.3         1 DKZ       0.0730
     14 O6         35.5991   22.7255   30.1424 O.3         1 DKZ      -0.3924
     15 C7         38.3312   26.0160   35.1222 C.2         1 DKZ       0.0739
     16 C8         39.5350   26.5488   35.3929 C.2         1 DKZ       0.0019
     17 C9         40.3781   26.8313   34.3311 C.2         1 DKZ       0.0853
     18 C10        38.7426   26.0856   32.8238 C.2         1 DKZ       0.3488
     19 O10        38.4965   25.9368   31.6335 O.2         1 DKZ      -0.3777
     20 H1         36.4455   24.3316   34.2285 H           1 DKZ       0.1013
     21 H2         35.6107   27.2159   33.6552 H           1 DKZ       0.0680
     22 H3         40.5689   26.7444   32.3361 H           1 DKZ       0.2412
     23 H4         34.9270   25.7361   35.9272 H           1 DKZ       0.2101
     24 H5         33.7370   24.8900   34.3374 H           1 DKZ       0.0706
     25 H6         41.9355   27.5211   35.4148 H           1 DKZ       0.0340
     26 H7         34.0447   26.2794   31.6211 H           1 DKZ       0.0650
     27 H8         32.0411   25.6278   31.7751 H           1 DKZ       0.2100
     28 H9         34.8099   23.4144   32.4415 H           1 DKZ       0.0647
     29 H10        35.6669   24.7607   29.8496 H           1 DKZ       0.0584
     30 H11        34.0506   24.0392   29.9510 H           1 DKZ       0.0584
     31 H12        36.5216   22.7564   30.4729 H           1 DKZ       0.2095
     32 H13        37.7684   25.7661   35.9005 H           1 DKZ       0.1288
     33 H14        39.8235   26.7089   36.3336 H           1 DKZ       0.0330
@<TRIPOS>BOND
     1     2     1   1
     2     1     3   1
     3     1    12   1
     4     2    15   1
     5    18     2  am
     6     3     5   1
     7     3     6   1
     8     4    17   1
     9     4    18  am
    10     6     7   1
    11     6     9   1
    12    17     8   2
    13     9    10   1
    14     9    11   1
    15    11    12   1
    16    11    13   1
    17    13    14   1
    18    15    16   2
    19    16    17   1
    20    18    19   2
    21     1    20   1
    22     3    21   1
    23     4    22   1
    24     5    23   1
    25     6    24   1
    26     8    25   1
    27     9    26   1
    28    10    27   1
    29    11    28   1
    30    13    29   1
    31    13    30   1
    32    14    31   1
    33    15    32   1
    34    16    33   1
@<TRIPOS>SUBSTRUCTURE
     1  DKZ      1

