@<TRIPOS>MOLECULE
3l7b_ligand_016
    33    34
SMALL
GAST_HUCK
****
This file was generated by PARSER (from files_GN.cpp)

@<TRIPOS>ATOM
      1 C1         34.3897   23.7089   28.1344 C.3         1 DKZ       0.2111
      2 N1         35.2793   23.6719   29.2882 N.am        1 DKZ      -0.1467
      3 C2         33.7934   22.3006   27.8455 C.3         1 DKZ       0.1450
      4 N2         37.4113   23.5520   30.2212 N.am        1 DKZ      -0.1924
      5 O2         34.8311   21.3601   27.5593 O.3         1 DKZ      -0.3832
      6 C3         32.7784   22.3770   26.6746 C.3         1 DKZ       0.1601
      7 F3         32.1869   21.1474   26.4896 F           1 DKZ      -0.2398
      8 N3         37.7410   23.5896   32.5266 N.2         1 DKZ      -0.4291
      9 C4         31.6916   23.4535   26.9564 C.3         1 DKZ       0.1171
     10 O4         30.8301   23.5753   25.8213 O.3         1 DKZ      -0.3862
     11 C5         32.3499   24.8260   27.2997 C.3         1 DKZ       0.1138
     12 O5         33.3382   24.6823   28.3440 O.3         1 DKZ      -0.3357
     13 C6         31.3323   25.9079   27.7538 C.3         1 DKZ       0.0730
     14 O6         31.0151   25.8248   29.1399 O.3         1 DKZ      -0.3924
     15 C7         34.7517   23.6882   30.5526 C.2         1 DKZ       0.0739
     16 C8         35.5292   23.6850   31.6499 C.2         1 DKZ       0.0019
     17 C9         36.9024   23.6129   31.4771 C.2         1 DKZ       0.0853
     18 C10        36.6206   23.5877   29.1526 C.2         1 DKZ       0.3488
     19 O10        37.1874   23.5210   28.0720 O.2         1 DKZ      -0.3777
     20 H1         34.9328   24.0343   27.2378 H           1 DKZ       0.1013
     21 H2         33.2705   21.9428   28.7371 H           1 DKZ       0.0680
     22 H3         38.3725   23.4801   30.1016 H           1 DKZ       0.2412
     23 H4         35.4624   21.8022   26.9540 H           1 DKZ       0.2101
     24 H5         33.3106   22.6302   25.7524 H           1 DKZ       0.0706
     25 H6         37.3923   23.6302   33.4296 H           1 DKZ       0.0340
     26 H7         31.0797   23.1287   27.8027 H           1 DKZ       0.0650
     27 H8         31.4066   23.8700   25.0839 H           1 DKZ       0.2100
     28 H9         32.8417   25.2050   26.3960 H           1 DKZ       0.0647
     29 H10        30.4025   25.8194   27.1896 H           1 DKZ       0.0584
     30 H11        31.7482   26.9014   27.5615 H           1 DKZ       0.0584
     31 H12        31.4399   26.6100   29.5480 H           1 DKZ       0.2095
     32 H13        33.7649   23.7053   30.6860 H           1 DKZ       0.1288
     33 H14        35.1289   23.7085   32.5601 H           1 DKZ       0.0330
@<TRIPOS>BOND
     1     2     1   1
     2     1     3   1
     3     1    12   1
     4     2    15   1
     5    18     2  am
     6     3     5   1
     7     3     6   1
     8     4    17   1
     9     4    18  am
    10     6     7   1
    11     6     9   1
    12    17     8   2
    13     9    10   1
    14     9    11   1
    15    11    12   1
    16    11    13   1
    17    13    14   1
    18    15    16   2
    19    16    17   1
    20    18    19   2
    21     1    20   1
    22     3    21   1
    23     4    22   1
    24     5    23   1
    25     6    24   1
    26     8    25   1
    27     9    26   1
    28    10    27   1
    29    11    28   1
    30    13    29   1
    31    13    30   1
    32    14    31   1
    33    15    32   1
    34    16    33   1
@<TRIPOS>SUBSTRUCTURE
     1  DKZ      1

