@<TRIPOS>MOLECULE
3l7b_ligand_014
    33    34
SMALL
GAST_HUCK
****
This file was generated by PARSER (from files_GN.cpp)

@<TRIPOS>ATOM
      1 C1         32.8756   22.9951   27.4141 C.3         1 DKZ       0.2111
      2 N1         33.1816   23.6956   28.6671 N.am        1 DKZ      -0.1467
      3 C2         33.9161   21.9746   26.8301 C.3         1 DKZ       0.1450
      4 N2         32.5519   25.2528   30.2839 N.am        1 DKZ      -0.1924
      5 O2         35.0785   22.6977   26.4428 O.3         1 DKZ      -0.3832
      6 C3         33.3639   21.1864   25.6063 C.3         1 DKZ       0.1601
      7 F3         34.2344   20.1810   25.2524 F           1 DKZ      -0.2398
      8 N3         33.9168   25.7883   32.0915 N.2         1 DKZ      -0.4291
      9 C4         31.9650   20.5861   25.9140 C.3         1 DKZ       0.1171
     10 O4         31.4376   19.9600   24.7389 O.3         1 DKZ      -0.3862
     11 C5         31.0285   21.7237   26.4025 C.3         1 DKZ       0.1138
     12 O5         31.6006   22.3152   27.5879 O.3         1 DKZ      -0.3357
     13 C6         29.6109   21.2175   26.7404 C.3         1 DKZ       0.0730
     14 O6         28.7261   22.3161   26.9494 O.3         1 DKZ      -0.3924
     15 C7         34.3467   23.4972   29.3636 C.2         1 DKZ       0.0739
     16 C8         34.6362   24.1738   30.4924 C.2         1 DKZ       0.0019
     17 C9         33.7061   25.0777   30.9707 C.2         1 DKZ       0.0853
     18 C10        32.2990   24.5908   29.1623 C.2         1 DKZ       0.3488
     19 O10        31.2334   24.8577   28.6260 O.2         1 DKZ      -0.3777
     20 H1         32.7452   23.7784   26.6481 H           1 DKZ       0.1013
     21 H2         34.1846   21.2548   27.6073 H           1 DKZ       0.0680
     22 H3         31.9024   25.8870   30.6145 H           1 DKZ       0.2412
     23 H4         35.7801   22.0081   26.3291 H           1 DKZ       0.2101
     24 H5         33.2732   21.8597   24.7567 H           1 DKZ       0.0706
     25 H6         34.7403   25.6750   32.6001 H           1 DKZ       0.0340
     26 H7         32.0512   19.8232   26.7085 H           1 DKZ       0.0650
     27 H8         31.4576   18.9894   24.9389 H           1 DKZ       0.2100
     28 H9         30.9291   22.4698   25.6119 H           1 DKZ       0.0647
     29 H10        29.6242   20.5963   27.6445 H           1 DKZ       0.0584
     30 H11        29.2223   20.6208   25.9114 H           1 DKZ       0.0584
     31 H12        27.8394   21.9014   26.9338 H           1 DKZ       0.2095
     32 H13        35.0297   22.8503   29.0417 H           1 DKZ       0.1288
     33 H14        35.4988   24.0299   30.9726 H           1 DKZ       0.0330
@<TRIPOS>BOND
     1     2     1   1
     2     1     3   1
     3     1    12   1
     4     2    15   1
     5    18     2  am
     6     3     5   1
     7     3     6   1
     8     4    17   1
     9     4    18  am
    10     6     7   1
    11     6     9   1
    12    17     8   2
    13     9    10   1
    14     9    11   1
    15    11    12   1
    16    11    13   1
    17    13    14   1
    18    15    16   2
    19    16    17   1
    20    18    19   2
    21     1    20   1
    22     3    21   1
    23     4    22   1
    24     5    23   1
    25     6    24   1
    26     8    25   1
    27     9    26   1
    28    10    27   1
    29    11    28   1
    30    13    29   1
    31    13    30   1
    32    14    31   1
    33    15    32   1
    34    16    33   1
@<TRIPOS>SUBSTRUCTURE
     1  DKZ      1

