@<TRIPOS>MOLECULE
3l7b_ligand_000
    33    34
SMALL
GAST_HUCK
****
This file was generated by PARSER (from files_GN.cpp)

@<TRIPOS>ATOM
      1 C1         32.2193   22.2531   26.2569 C.3         1 DKZ       0.2111
      2 N1         31.7335   23.5512   26.7424 N.am        1 DKZ      -0.1467
      3 C2         33.6294   22.1174   25.5866 C.3         1 DKZ       0.1450
      4 N2         31.9724   25.7449   27.5189 N.am        1 DKZ      -0.1924
      5 O2         33.6656   22.7794   24.3159 O.3         1 DKZ      -0.3832
      6 C3         34.0144   20.6275   25.3583 C.3         1 DKZ       0.1601
      7 F3         35.3196   20.5285   24.9311 F           1 DKZ      -0.2398
      8 N3         30.1802   26.9261   28.4325 N.2         1 DKZ      -0.4291
      9 C4         33.8384   19.8151   26.6679 C.3         1 DKZ       0.1171
     10 O4         34.2263   18.4587   26.4816 O.3         1 DKZ      -0.3862
     11 C5         32.3627   19.9521   27.1348 C.3         1 DKZ       0.1138
     12 O5         32.1007   21.3495   27.3907 O.3         1 DKZ      -0.3357
     13 C6         32.0317   19.1228   28.4006 C.3         1 DKZ       0.0730
     14 O6         32.8220   19.5195   29.5122 O.3         1 DKZ      -0.3924
     15 C7         30.4000   23.6265   27.0653 C.2         1 DKZ       0.0739
     16 C8         29.8446   24.7244   27.6062 C.2         1 DKZ       0.0019
     17 C9         30.6584   25.8145   27.8496 C.2         1 DKZ       0.0853
     18 C10        32.4951   24.6459   26.9787 C.2         1 DKZ       0.3488
     19 O10        33.6953   24.7177   26.7580 O.2         1 DKZ      -0.3777
     20 H1         31.5128   21.9194   25.4834 H           1 DKZ       0.1013
     21 H2         34.4003   22.5387   26.2297 H           1 DKZ       0.0680
     22 H3         32.5412   26.5089   27.6996 H           1 DKZ       0.2412
     23 H4         33.4128   23.7177   24.4791 H           1 DKZ       0.2101
     24 H5         33.3779   20.1993   24.5761 H           1 DKZ       0.0706
     25 H6         30.7744   27.6692   28.6250 H           1 DKZ       0.0340
     26 H7         34.5003   20.2450   27.4276 H           1 DKZ       0.0650
     27 H8         34.4839   18.1621   27.3850 H           1 DKZ       0.2100
     28 H9         31.6940   19.5984   26.3439 H           1 DKZ       0.0647
     29 H10        32.1977   18.0619   28.2113 H           1 DKZ       0.0584
     30 H11        30.9795   19.2593   28.6584 H           1 DKZ       0.0584
     31 H12        33.7313   19.2327   29.2871 H           1 DKZ       0.2095
     32 H13        29.7985   22.8430   26.9218 H           1 DKZ       0.1288
     33 H14        28.8860   24.7386   27.8572 H           1 DKZ       0.0330
@<TRIPOS>BOND
     1     2     1   1
     2     1     3   1
     3     1    12   1
     4     2    15   1
     5    18     2  am
     6     3     5   1
     7     3     6   1
     8     4    17   1
     9     4    18  am
    10     6     7   1
    11     6     9   1
    12    17     8   2
    13     9    10   1
    14     9    11   1
    15    11    12   1
    16    11    13   1
    17    13    14   1
    18    15    16   2
    19    16    17   1
    20    18    19   2
    21     1    20   1
    22     3    21   1
    23     4    22   1
    24     5    23   1
    25     6    24   1
    26     8    25   1
    27     9    26   1
    28    10    27   1
    29    11    28   1
    30    13    29   1
    31    13    30   1
    32    14    31   1
    33    15    32   1
    34    16    33   1
@<TRIPOS>SUBSTRUCTURE
     1  DKZ      1

