@<TRIPOS>MOLECULE
3l7b_ligand_004
    33    34
SMALL
GAST_HUCK
****
This file was generated by PARSER (from files_GN.cpp)

@<TRIPOS>ATOM
      1 C1         34.5847   23.0478   28.9945 C.3         1 DKZ       0.2111
      2 N1         34.2206   23.7022   30.2520 N.am        1 DKZ      -0.1467
      3 C2         33.6133   21.8890   28.5944 C.3         1 DKZ       0.1450
      4 N2         32.7851   25.0343   31.5245 N.am        1 DKZ      -0.1924
      5 O2         33.6180   20.8313   29.5522 O.3         1 DKZ      -0.3832
      6 C3         33.9858   21.3346   27.1943 C.3         1 DKZ       0.1601
      7 F3         33.0553   20.4018   26.8015 F           1 DKZ      -0.2398
      8 N3         33.1099   25.3680   33.8032 N.2         1 DKZ      -0.4291
      9 C4         34.0653   22.4756   26.1381 C.3         1 DKZ       0.1171
     10 O4         34.5403   21.9463   24.8993 O.3         1 DKZ      -0.3862
     11 C5         34.9977   23.6259   26.6337 C.3         1 DKZ       0.1138
     12 O5         34.6206   24.0606   27.9588 O.3         1 DKZ      -0.3357
     13 C6         34.9839   24.8807   25.7251 C.3         1 DKZ       0.0730
     14 O6         35.2277   24.5900   24.3527 O.3         1 DKZ      -0.3924
     15 C7         35.0127   23.5492   31.3610 C.2         1 DKZ       0.0739
     16 C8         34.6850   24.0734   32.5562 C.2         1 DKZ       0.0019
     17 C9         33.5256   24.8325   32.6398 C.2         1 DKZ       0.0853
     18 C10        33.1197   24.4893   30.3567 C.2         1 DKZ       0.3488
     19 O10        32.3860   24.7459   29.4164 O.2         1 DKZ      -0.3777
     20 H1         35.5903   22.6192   29.0630 H           1 DKZ       0.1013
     21 H2         32.5934   22.2743   28.5500 H           1 DKZ       0.0680
     22 H3         32.0028   25.6049   31.5711 H           1 DKZ       0.2412
     23 H4         34.1891   20.1225   29.1909 H           1 DKZ       0.2101
     24 H5         34.9569   20.8324   27.2482 H           1 DKZ       0.0706
     25 H6         33.6061   25.2281   34.6321 H           1 DKZ       0.0340
     26 H7         33.0626   22.8750   25.9722 H           1 DKZ       0.0650
     27 H8         35.5118   21.8215   25.0516 H           1 DKZ       0.2100
     28 H9         36.0305   23.2569   26.6810 H           1 DKZ       0.0647
     29 H10        35.7599   25.5671   26.0594 H           1 DKZ       0.0584
     30 H11        34.0211   25.3806   25.8190 H           1 DKZ       0.0584
     31 H12        34.3656   24.7111   23.9127 H           1 DKZ       0.2095
     32 H13        35.8537   23.0208   31.3071 H           1 DKZ       0.1288
     33 H14        35.2613   23.9315   33.3515 H           1 DKZ       0.0330
@<TRIPOS>BOND
     1     2     1   1
     2     1     3   1
     3     1    12   1
     4     2    15   1
     5    18     2  am
     6     3     5   1
     7     3     6   1
     8     4    17   1
     9     4    18  am
    10     6     7   1
    11     6     9   1
    12    17     8   2
    13     9    10   1
    14     9    11   1
    15    11    12   1
    16    11    13   1
    17    13    14   1
    18    15    16   2
    19    16    17   1
    20    18    19   2
    21     1    20   1
    22     3    21   1
    23     4    22   1
    24     5    23   1
    25     6    24   1
    26     8    25   1
    27     9    26   1
    28    10    27   1
    29    11    28   1
    30    13    29   1
    31    13    30   1
    32    14    31   1
    33    15    32   1
    34    16    33   1
@<TRIPOS>SUBSTRUCTURE
     1  DKZ      1

