@<TRIPOS>MOLECULE
3l7b_ligand_012
    33    34
SMALL
GAST_HUCK
****
This file was generated by PARSER (from files_GN.cpp)

@<TRIPOS>ATOM
      1 C1         37.6205   27.1167   35.8188 C.3         1 DKZ       0.2111
      2 N1         36.5320   26.2977   35.2916 N.am        1 DKZ      -0.1467
      3 C2         37.3974   27.6627   37.2620 C.3         1 DKZ       0.1450
      4 N2         35.2377   24.3631   35.3132 N.am        1 DKZ      -0.1924
      5 O2         36.1587   28.3651   37.3629 O.3         1 DKZ      -0.3832
      6 C3         38.5953   28.5510   37.6683 C.3         1 DKZ       0.1601
      7 F3         38.4510   28.9449   38.9770 F           1 DKZ      -0.2398
      8 N3         33.5820   23.9774   33.7274 N.2         1 DKZ      -0.4291
      9 C4         39.9460   27.7957   37.4944 C.3         1 DKZ       0.1171
     10 O4         41.0170   28.7172   37.7031 O.3         1 DKZ      -0.3862
     11 C5         40.0488   27.1292   36.0871 C.3         1 DKZ       0.1138
     12 O5         38.8581   26.3719   35.7837 O.3         1 DKZ      -0.3357
     13 C6         41.2722   26.1834   35.9736 C.3         1 DKZ       0.0730
     14 O6         41.2687   25.4743   34.7364 O.3         1 DKZ      -0.3924
     15 C7         35.8461   26.7120   34.1812 C.2         1 DKZ       0.0739
     16 C8         34.8581   25.9827   33.6315 C.2         1 DKZ       0.0019
     17 C9         34.5533   24.7683   34.2179 C.2         1 DKZ       0.0853
     18 C10        36.2038   25.1075   35.8402 C.2         1 DKZ       0.3488
     19 O10        36.7638   24.6428   36.8212 O.2         1 DKZ      -0.3777
     20 H1         37.7452   28.0024   35.1780 H           1 DKZ       0.1013
     21 H2         37.3484   26.8440   37.9746 H           1 DKZ       0.0680
     22 H3         35.0097   23.5124   35.7269 H           1 DKZ       0.2412
     23 H4         35.9919   28.7633   36.4823 H           1 DKZ       0.2101
     24 H5         38.6104   29.4543   37.0457 H           1 DKZ       0.0706
     25 H6         33.0855   24.2614   32.9459 H           1 DKZ       0.0340
     26 H7         40.0024   27.0159   38.2627 H           1 DKZ       0.0650
     27 H8         41.8145   28.1579   37.8693 H           1 DKZ       0.2100
     28 H9         40.1716   27.9129   35.3389 H           1 DKZ       0.0647
     29 H10        41.2844   25.4520   36.7846 H           1 DKZ       0.0584
     30 H11        42.2020   26.7668   36.0190 H           1 DKZ       0.0584
     31 H12        40.4834   24.8866   34.7855 H           1 DKZ       0.2095
     32 H13        36.0698   27.5733   33.7382 H           1 DKZ       0.1288
     33 H14        34.3673   26.2992   32.8288 H           1 DKZ       0.0330
@<TRIPOS>BOND
     1     2     1   1
     2     1     3   1
     3     1    12   1
     4     2    15   1
     5    18     2  am
     6     3     5   1
     7     3     6   1
     8     4    17   1
     9     4    18  am
    10     6     7   1
    11     6     9   1
    12    17     8   2
    13     9    10   1
    14     9    11   1
    15    11    12   1
    16    11    13   1
    17    13    14   1
    18    15    16   2
    19    16    17   1
    20    18    19   2
    21     1    20   1
    22     3    21   1
    23     4    22   1
    24     5    23   1
    25     6    24   1
    26     8    25   1
    27     9    26   1
    28    10    27   1
    29    11    28   1
    30    13    29   1
    31    13    30   1
    32    14    31   1
    33    15    32   1
    34    16    33   1
@<TRIPOS>SUBSTRUCTURE
     1  DKZ      1

