@<TRIPOS>MOLECULE
3l7b_ligand_009
    33    34
SMALL
GAST_HUCK
****
This file was generated by PARSER (from files_GN.cpp)

@<TRIPOS>ATOM
      1 C1         36.7179   25.6717   32.0201 C.3         1 DKZ       0.2111
      2 N1         37.9016   26.0051   32.8022 N.am        1 DKZ      -0.1467
      3 C2         36.7305   24.1685   31.6101 C.3         1 DKZ       0.1450
      4 N2         40.1082   26.7433   32.9536 N.am        1 DKZ      -0.1924
      5 O2         37.8823   23.9004   30.8085 O.3         1 DKZ      -0.3832
      6 C3         35.4298   23.8298   30.8352 C.3         1 DKZ       0.1601
      7 F3         35.4022   22.4945   30.5150 F           1 DKZ      -0.2398
      8 N3         41.2232   26.8646   34.9954 N.2         1 DKZ      -0.4291
      9 C4         34.1789   24.1994   31.6734 C.3         1 DKZ       0.1171
     10 O4         33.0107   23.9806   30.8935 O.3         1 DKZ      -0.3862
     11 C5         34.2295   25.6831   32.1664 C.3         1 DKZ       0.1138
     12 O5         35.5169   25.9977   32.7602 O.3         1 DKZ      -0.3357
     13 C6         33.1643   26.0034   33.2613 C.3         1 DKZ       0.0730
     14 O6         31.8663   25.4682   33.0126 O.3         1 DKZ      -0.3924
     15 C7         37.9031   25.8197   34.1614 C.2         1 DKZ       0.0739
     16 C8         38.9703   26.1096   34.9252 C.2         1 DKZ       0.0019
     17 C9         40.1110   26.5807   34.3021 C.2         1 DKZ       0.0853
     18 C10        39.0314   26.4640   32.2180 C.2         1 DKZ       0.3488
     19 O10        39.1468   26.6257   31.0126 O.2         1 DKZ      -0.3777
     20 H1         36.6944   26.2619   31.0969 H           1 DKZ       0.1013
     21 H2         36.7915   23.5525   32.5127 H           1 DKZ       0.0680
     22 H3         40.9145   27.0493   32.5146 H           1 DKZ       0.2412
     23 H4         38.1643   22.9920   31.0484 H           1 DKZ       0.2101
     24 H5         35.4147   24.3942   29.8982 H           1 DKZ       0.0706
     25 H6         41.2440   26.7496   35.9558 H           1 DKZ       0.0340
     26 H7         34.1395   23.5509   32.5497 H           1 DKZ       0.0650
     27 H8         33.0776   24.6029   30.1329 H           1 DKZ       0.2100
     28 H9         34.0760   26.3495   31.3060 H           1 DKZ       0.0647
     29 H10        33.0633   27.0852   33.3586 H           1 DKZ       0.0584
     30 H11        33.4986   25.6040   34.2218 H           1 DKZ       0.0584
     31 H12        31.4734   26.0588   32.3439 H           1 DKZ       0.2095
     32 H13        37.0958   25.4598   34.6246 H           1 DKZ       0.1288
     33 H14        38.9442   25.9707   35.9119 H           1 DKZ       0.0330
@<TRIPOS>BOND
     1     2     1   1
     2     1     3   1
     3     1    12   1
     4     2    15   1
     5    18     2  am
     6     3     5   1
     7     3     6   1
     8     4    17   1
     9     4    18  am
    10     6     7   1
    11     6     9   1
    12    17     8   2
    13     9    10   1
    14     9    11   1
    15    11    12   1
    16    11    13   1
    17    13    14   1
    18    15    16   2
    19    16    17   1
    20    18    19   2
    21     1    20   1
    22     3    21   1
    23     4    22   1
    24     5    23   1
    25     6    24   1
    26     8    25   1
    27     9    26   1
    28    10    27   1
    29    11    28   1
    30    13    29   1
    31    13    30   1
    32    14    31   1
    33    15    32   1
    34    16    33   1
@<TRIPOS>SUBSTRUCTURE
     1  DKZ      1

