@<TRIPOS>MOLECULE
3l7b_ligand_005
    33    34
SMALL
GAST_HUCK
****
This file was generated by PARSER (from files_GN.cpp)

@<TRIPOS>ATOM
      1 C1         36.3437   24.5143   31.6616 C.3         1 DKZ       0.2111
      2 N1         35.1481   24.4566   30.8192 N.am        1 DKZ      -0.1467
      3 C2         37.6475   24.5373   30.8027 C.3         1 DKZ       0.1450
      4 N2         33.0807   25.2773   30.1065 N.am        1 DKZ      -0.1924
      5 O2         37.7635   23.3540   29.9973 O.3         1 DKZ      -0.3832
      6 C3         38.9052   24.6638   31.7190 C.3         1 DKZ       0.1601
      7 F3         40.0303   24.8218   30.9347 F           1 DKZ      -0.2398
      8 N3         31.7693   24.1245   28.5636 N.2         1 DKZ      -0.4291
      9 C4         38.7764   25.8530   32.7038 C.3         1 DKZ       0.1171
     10 O4         39.8803   25.8810   33.6048 O.3         1 DKZ      -0.3862
     11 C5         37.4205   25.7797   33.4767 C.3         1 DKZ       0.1138
     12 O5         36.3292   25.6584   32.5423 O.3         1 DKZ      -0.3357
     13 C6         37.1712   27.0207   34.3797 C.3         1 DKZ       0.0730
     14 O6         36.4525   26.6848   35.5822 O.3         1 DKZ      -0.3924
     15 C7         34.9829   23.3871   29.9721 C.2         1 DKZ       0.0739
     16 C8         33.8890   23.2456   29.2015 C.2         1 DKZ       0.0019
     17 C9         32.9028   24.2161   29.2789 C.2         1 DKZ       0.0853
     18 C10        34.1802   25.4011   30.8373 C.2         1 DKZ       0.3488
     19 O10        34.2342   26.4246   31.5058 O.2         1 DKZ      -0.3777
     20 H1         36.3677   23.6200   32.2976 H           1 DKZ       0.1013
     21 H2         37.6044   25.4079   30.1279 H           1 DKZ       0.0680
     22 H3         32.3930   25.9587   30.1849 H           1 DKZ       0.2412
     23 H4         38.0769   22.6630   30.6257 H           1 DKZ       0.2101
     24 H5         39.0307   23.7336   32.2765 H           1 DKZ       0.0706
     25 H6         31.6399   23.3605   27.9718 H           1 DKZ       0.0340
     26 H7         38.8005   26.7813   32.1155 H           1 DKZ       0.0650
     27 H8         39.8523   25.0262   34.0840 H           1 DKZ       0.2100
     28 H9         37.4029   24.9090   34.1269 H           1 DKZ       0.0647
     29 H10        36.5809   27.7870   33.8520 H           1 DKZ       0.0584
     30 H11        38.1306   27.4721   34.6800 H           1 DKZ       0.0584
     31 H12        35.8205   27.4311   35.7083 H           1 DKZ       0.2095
     32 H13        35.6762   22.6728   29.9043 H           1 DKZ       0.1288
     33 H14        33.7753   22.4610   28.5913 H           1 DKZ       0.0330
@<TRIPOS>BOND
     1     2     1   1
     2     1     3   1
     3     1    12   1
     4     2    15   1
     5    18     2  am
     6     3     5   1
     7     3     6   1
     8     4    17   1
     9     4    18  am
    10     6     7   1
    11     6     9   1
    12    17     8   2
    13     9    10   1
    14     9    11   1
    15    11    12   1
    16    11    13   1
    17    13    14   1
    18    15    16   2
    19    16    17   1
    20    18    19   2
    21     1    20   1
    22     3    21   1
    23     4    22   1
    24     5    23   1
    25     6    24   1
    26     8    25   1
    27     9    26   1
    28    10    27   1
    29    11    28   1
    30    13    29   1
    31    13    30   1
    32    14    31   1
    33    15    32   1
    34    16    33   1
@<TRIPOS>SUBSTRUCTURE
     1  DKZ      1

