@<TRIPOS>MOLECULE
3l7b_ligand_023
    33    34
SMALL
GAST_HUCK
****
This file was generated by PARSER (from files_GN.cpp)

@<TRIPOS>ATOM
      1 C1         32.5542   23.4638   27.7865 C.3         1 DKZ       0.2111
      2 N1         33.8861   23.7610   28.2835 N.am        1 DKZ      -0.1467
      3 C2         32.0241   24.4549   26.6972 C.3         1 DKZ       0.1450
      4 N2         36.1618   24.1665   27.9423 N.am        1 DKZ      -0.1924
      5 O2         31.8663   25.7807   27.1932 O.3         1 DKZ      -0.3832
      6 C3         30.6681   23.9525   26.1360 C.3         1 DKZ       0.1601
      7 F3         30.2945   24.7155   25.0503 F           1 DKZ      -0.2398
      8 N3         37.5805   24.7002   29.7161 N.2         1 DKZ      -0.4291
      9 C4         30.7323   22.4588   25.7091 C.3         1 DKZ       0.1171
     10 O4         29.4306   21.9873   25.3587 O.3         1 DKZ      -0.3862
     11 C5         31.3048   21.5842   26.8653 C.3         1 DKZ       0.1138
     12 O5         32.5800   22.1066   27.2966 O.3         1 DKZ      -0.3357
     13 C6         31.4942   20.0929   26.4902 C.3         1 DKZ       0.0730
     14 O6         32.5864   19.9085   25.5845 O.3         1 DKZ      -0.3924
     15 C7         34.1009   23.8596   29.6341 C.2         1 DKZ       0.0739
     16 C8         35.3115   24.1415   30.1521 C.2         1 DKZ       0.0019
     17 C9         36.3686   24.3392   29.2699 C.2         1 DKZ       0.0853
     18 C10        34.9526   23.8950   27.4544 C.2         1 DKZ       0.3488
     19 O10        34.8855   23.7713   26.2423 O.2         1 DKZ      -0.3777
     20 H1         31.8300   23.4981   28.6072 H           1 DKZ       0.1013
     21 H2         32.7235   24.5113   25.8661 H           1 DKZ       0.0680
     22 H3         36.9122   24.2694   27.3317 H           1 DKZ       0.2412
     23 H4         31.9588   25.7377   28.1730 H           1 DKZ       0.2101
     24 H5         29.8907   24.0648   26.8984 H           1 DKZ       0.0706
     25 H6         37.7276   24.8379   30.6715 H           1 DKZ       0.0340
     26 H7         31.3772   22.3607   24.8309 H           1 DKZ       0.0650
     27 H8         28.8862   22.1120   26.1654 H           1 DKZ       0.2100
     28 H9         30.5973   21.6137   27.6999 H           1 DKZ       0.0647
     29 H10        30.5828   19.6888   26.0347 H           1 DKZ       0.0584
     30 H11        31.7005   19.5193   27.4024 H           1 DKZ       0.0584
     31 H12        32.6829   18.9355   25.5206 H           1 DKZ       0.2095
     32 H13        33.3607   23.7145   30.2780 H           1 DKZ       0.1288
     33 H14        35.4498   24.2013   31.1394 H           1 DKZ       0.0330
@<TRIPOS>BOND
     1     2     1   1
     2     1     3   1
     3     1    12   1
     4     2    15   1
     5    18     2  am
     6     3     5   1
     7     3     6   1
     8     4    17   1
     9     4    18  am
    10     6     7   1
    11     6     9   1
    12    17     8   2
    13     9    10   1
    14     9    11   1
    15    11    12   1
    16    11    13   1
    17    13    14   1
    18    15    16   2
    19    16    17   1
    20    18    19   2
    21     1    20   1
    22     3    21   1
    23     4    22   1
    24     5    23   1
    25     6    24   1
    26     8    25   1
    27     9    26   1
    28    10    27   1
    29    11    28   1
    30    13    29   1
    31    13    30   1
    32    14    31   1
    33    15    32   1
    34    16    33   1
@<TRIPOS>SUBSTRUCTURE
     1  DKZ      1

