@<TRIPOS>MOLECULE
3l7b_ligand_015
    33    34
SMALL
GAST_HUCK
****
This file was generated by PARSER (from files_GN.cpp)

@<TRIPOS>ATOM
      1 C1         38.0908   26.3087   35.8549 C.3         1 DKZ       0.2111
      2 N1         36.7866   25.8927   35.3343 N.am        1 DKZ      -0.1467
      3 C2         39.1140   26.8458   34.7962 C.3         1 DKZ       0.1450
      4 N2         34.9856   24.4084   35.2999 N.am        1 DKZ      -0.1924
      5 O2         39.3785   25.8433   33.8155 O.3         1 DKZ      -0.3832
      6 C3         40.4181   27.3265   35.4872 C.3         1 DKZ       0.1601
      7 F3         41.2431   27.9151   34.5583 F           1 DKZ      -0.2398
      8 N3         33.2382   24.6306   33.7829 N.2         1 DKZ      -0.4291
      9 C4         40.0930   28.3296   36.6320 C.3         1 DKZ       0.1171
     10 O4         41.2885   28.7064   37.3130 O.3         1 DKZ      -0.3862
     11 C5         39.0594   27.7021   37.6111 C.3         1 DKZ       0.1138
     12 O5         37.8724   27.2843   36.8939 O.3         1 DKZ      -0.3357
     13 C6         38.6205   28.6542   38.7514 C.3         1 DKZ       0.0730
     14 O6         37.6440   29.5914   38.3080 O.3         1 DKZ      -0.3924
     15 C7         36.1730   26.6139   34.3415 C.2         1 DKZ       0.0739
     16 C8         35.0063   26.2268   33.7954 C.2         1 DKZ       0.0019
     17 C9         34.4052   25.0782   34.2737 C.2         1 DKZ       0.0853
     18 C10        36.1236   24.8272   35.8460 C.2         1 DKZ       0.3488
     19 O10        36.4912   24.2091   36.8394 O.2         1 DKZ      -0.3777
     20 H1         38.5862   25.4485   36.3156 H           1 DKZ       0.1013
     21 H2         38.6945   27.7104   34.2681 H           1 DKZ       0.0680
     22 H3         34.5469   23.6244   35.6667 H           1 DKZ       0.2412
     23 H4         39.6077   25.0368   34.3138 H           1 DKZ       0.2101
     24 H5         40.9465   26.4678   35.9003 H           1 DKZ       0.0706
     25 H6         32.8009   25.1109   33.0613 H           1 DKZ       0.0340
     26 H7         39.6626   29.2447   36.2110 H           1 DKZ       0.0650
     27 H8         41.6303   27.8856   37.7235 H           1 DKZ       0.2100
     28 H9         39.5254   26.8378   38.0840 H           1 DKZ       0.0647
     29 H10        39.4787   29.2060   39.1447 H           1 DKZ       0.0584
     30 H11        38.1857   28.0766   39.5721 H           1 DKZ       0.0584
     31 H12        36.8060   29.0691   38.2645 H           1 DKZ       0.2095
     32 H13        36.5814   27.4600   34.0171 H           1 DKZ       0.1288
     33 H14        34.5746   26.7658   33.0853 H           1 DKZ       0.0330
@<TRIPOS>BOND
     1     2     1   1
     2     1     3   1
     3     1    12   1
     4     2    15   1
     5    18     2  am
     6     3     5   1
     7     3     6   1
     8     4    17   1
     9     4    18  am
    10     6     7   1
    11     6     9   1
    12    17     8   2
    13     9    10   1
    14     9    11   1
    15    11    12   1
    16    11    13   1
    17    13    14   1
    18    15    16   2
    19    16    17   1
    20    18    19   2
    21     1    20   1
    22     3    21   1
    23     4    22   1
    24     5    23   1
    25     6    24   1
    26     8    25   1
    27     9    26   1
    28    10    27   1
    29    11    28   1
    30    13    29   1
    31    13    30   1
    32    14    31   1
    33    15    32   1
    34    16    33   1
@<TRIPOS>SUBSTRUCTURE
     1  DKZ      1

