@<TRIPOS>MOLECULE
3l7b_ligand_021
    33    34
SMALL
GAST_HUCK
****
This file was generated by PARSER (from files_GN.cpp)

@<TRIPOS>ATOM
      1 C1         38.5360   26.1978   33.7375 C.3         1 DKZ       0.2111
      2 N1         39.6651   25.5011   33.1101 N.am        1 DKZ      -0.1467
      3 C2         37.2622   25.2924   33.8182 C.3         1 DKZ       0.1450
      4 N2         40.7400   24.6718   31.2120 N.am        1 DKZ      -0.1924
      5 O2         36.8109   24.9165   32.5180 O.3         1 DKZ      -0.3832
      6 C3         36.1090   26.0016   34.5785 C.3         1 DKZ       0.1601
      7 F3         35.0351   25.1495   34.7245 F           1 DKZ      -0.2398
      8 N3         42.7267   23.4781   31.3358 N.2         1 DKZ      -0.4291
      9 C4         36.5882   26.5032   35.9686 C.3         1 DKZ       0.1171
     10 O4         35.5339   27.2012   36.6308 O.3         1 DKZ      -0.3862
     11 C5         37.8385   27.4111   35.7995 C.3         1 DKZ       0.1138
     12 O5         38.8587   26.6894   35.0694 O.3         1 DKZ      -0.3357
     13 C6         38.4505   27.9115   37.1481 C.3         1 DKZ       0.0730
     14 O6         38.5521   29.3383   37.1800 O.3         1 DKZ      -0.3924
     15 C7         40.6804   24.9783   33.8737 C.2         1 DKZ       0.0739
     16 C8         41.7076   24.2979   33.3353 C.2         1 DKZ       0.0019
     17 C9         41.7318   24.1332   31.9588 C.2         1 DKZ       0.0853
     18 C10        39.7442   25.3488   31.7688 C.2         1 DKZ       0.3488
     19 O10        38.9359   25.8363   30.9803 O.2         1 DKZ      -0.3777
     20 H1         38.3067   27.0870   33.1368 H           1 DKZ       0.1013
     21 H2         37.5243   24.3816   34.3512 H           1 DKZ       0.0680
     22 H3         40.7682   24.5692   30.2477 H           1 DKZ       0.2412
     23 H4         36.1043   24.2510   32.6657 H           1 DKZ       0.2101
     24 H5         35.7657   26.8566   33.9904 H           1 DKZ       0.0706
     25 H6         43.4492   23.0787   31.8443 H           1 DKZ       0.0340
     26 H7         36.8504   25.6435   36.5898 H           1 DKZ       0.0650
     27 H8         34.8158   26.5379   36.7223 H           1 DKZ       0.2100
     28 H9         37.5438   28.2797   35.2056 H           1 DKZ       0.0647
     29 H10        39.4427   27.4802   37.3085 H           1 DKZ       0.0584
     30 H11        37.8465   27.6212   38.0114 H           1 DKZ       0.0584
     31 H12        39.0860   29.5984   36.3979 H           1 DKZ       0.2095
     32 H13        40.6896   25.0950   34.8606 H           1 DKZ       0.1288
     33 H14        42.4415   23.9391   33.9040 H           1 DKZ       0.0330
@<TRIPOS>BOND
     1     2     1   1
     2     1     3   1
     3     1    12   1
     4     2    15   1
     5    18     2  am
     6     3     5   1
     7     3     6   1
     8     4    17   1
     9     4    18  am
    10     6     7   1
    11     6     9   1
    12    17     8   2
    13     9    10   1
    14     9    11   1
    15    11    12   1
    16    11    13   1
    17    13    14   1
    18    15    16   2
    19    16    17   1
    20    18    19   2
    21     1    20   1
    22     3    21   1
    23     4    22   1
    24     5    23   1
    25     6    24   1
    26     8    25   1
    27     9    26   1
    28    10    27   1
    29    11    28   1
    30    13    29   1
    31    13    30   1
    32    14    31   1
    33    15    32   1
    34    16    33   1
@<TRIPOS>SUBSTRUCTURE
     1  DKZ      1

