@<TRIPOS>MOLECULE
3l7b_ligand_006
    33    34
SMALL
GAST_HUCK
****
This file was generated by PARSER (from files_GN.cpp)

@<TRIPOS>ATOM
      1 C1         36.2885   25.1189   30.9607 C.3         1 DKZ       0.2111
      2 N1         37.6888   24.8794   31.3121 N.am        1 DKZ      -0.1467
      3 C2         35.6348   23.8380   30.3542 C.3         1 DKZ       0.1450
      4 N2         39.3146   23.9851   32.7290 N.am        1 DKZ      -0.1924
      5 O2         36.2377   23.5087   29.1008 O.3         1 DKZ      -0.3832
      6 C3         34.1080   24.0409   30.1730 C.3         1 DKZ       0.1601
      7 F3         33.5296   22.8844   29.6997 F           1 DKZ      -0.2398
      8 N3         41.5811   24.0849   32.2284 N.2         1 DKZ      -0.4291
      9 C4         33.4688   24.4438   31.5270 C.3         1 DKZ       0.1171
     10 O4         32.0586   24.6019   31.3528 O.3         1 DKZ      -0.3862
     11 C5         34.1471   25.7259   32.1004 C.3         1 DKZ       0.1138
     12 O5         35.5851   25.5876   32.1430 O.3         1 DKZ      -0.3357
     13 C6         33.6995   26.0622   33.5625 C.3         1 DKZ       0.0730
     14 O6         32.4563   25.4807   33.9640 O.3         1 DKZ      -0.3924
     15 C7         38.6926   25.3057   30.4764 C.2         1 DKZ       0.0739
     16 C8         39.9929   25.0687   30.7437 C.2         1 DKZ       0.0019
     17 C9         40.3124   24.3866   31.9042 C.2         1 DKZ       0.0853
     18 C10        38.0361   24.2060   32.4347 C.2         1 DKZ       0.3488
     19 O10        37.2260   23.7714   33.2430 O.2         1 DKZ      -0.3777
     20 H1         36.2129   25.9192   30.2188 H           1 DKZ       0.1013
     21 H2         35.7923   22.9886   31.0287 H           1 DKZ       0.0680
     22 H3         39.5330   23.5275   33.5557 H           1 DKZ       0.2412
     23 H4         37.1581   23.2432   29.3180 H           1 DKZ       0.2101
     24 H5         33.9178   24.8278   29.4397 H           1 DKZ       0.0706
     25 H6         42.3126   24.3516   31.6502 H           1 DKZ       0.0340
     26 H7         33.6263   23.6238   32.2299 H           1 DKZ       0.0650
     27 H8         31.8958   25.5699   31.2617 H           1 DKZ       0.2100
     28 H9         33.9056   26.5663   31.4406 H           1 DKZ       0.0647
     29 H10        33.5905   27.1474   33.6695 H           1 DKZ       0.0584
     30 H11        34.4701   25.7331   34.2715 H           1 DKZ       0.0584
     31 H12        32.6031   25.1377   34.8703 H           1 DKZ       0.2095
     32 H13        38.4713   25.7899   29.6363 H           1 DKZ       0.1288
     33 H14        40.7064   25.3671   30.1237 H           1 DKZ       0.0330
@<TRIPOS>BOND
     1     2     1   1
     2     1     3   1
     3     1    12   1
     4     2    15   1
     5    18     2  am
     6     3     5   1
     7     3     6   1
     8     4    17   1
     9     4    18  am
    10     6     7   1
    11     6     9   1
    12    17     8   2
    13     9    10   1
    14     9    11   1
    15    11    12   1
    16    11    13   1
    17    13    14   1
    18    15    16   2
    19    16    17   1
    20    18    19   2
    21     1    20   1
    22     3    21   1
    23     4    22   1
    24     5    23   1
    25     6    24   1
    26     8    25   1
    27     9    26   1
    28    10    27   1
    29    11    28   1
    30    13    29   1
    31    13    30   1
    32    14    31   1
    33    15    32   1
    34    16    33   1
@<TRIPOS>SUBSTRUCTURE
     1  DKZ      1

