@<TRIPOS>MOLECULE
3lka_ligand_012
    21    21
SMALL
GAST_HUCK
****
This file was generated by PARSER (from files_GN.cpp)

@<TRIPOS>ATOM
      1 C1          7.9474   -7.0435    9.4089 C.ar        1 M4S      -0.0441
      2 N1          9.7380  -10.1460   11.5642 N.am        1 M4S      -0.2621
      3 O1          4.4039   -6.2189   10.0404 O.3         1 M4S      -0.3212
      4 S1          9.7000   -8.8708   10.4696 S.o2        1 M4S       0.0609
      5 C2          6.6891   -6.4209    9.3081 C.ar        1 M4S      -0.0313
      6 O2         10.0371   -9.5088    9.0535 O.2         1 M4S      -0.1519
      7 C3          5.6195   -6.8412   10.1247 C.ar        1 M4S       0.0908
      8 O3         10.9128   -7.8855   10.7678 O.2         1 M4S      -0.1519
      9 C4          5.8284   -7.8697   11.0661 C.ar        1 M4S      -0.0313
     10 C5          8.1525   -8.0840   10.3394 C.ar        1 M4S       0.0967
     11 C6          3.4631   -6.9252    9.2135 C.3         1 M4S       0.0594
     12 C7          7.0862   -8.4921   11.1683 C.ar        1 M4S      -0.0441
     13 H1          8.7081   -6.7316    8.8010 H           1 M4S       0.0608
     14 H2          9.7424  -11.0606   11.2409 H           1 M4S       0.1633
     15 H3          9.7960   -9.9670   12.5154 H           1 M4S       0.1633
     16 H4          6.5500   -5.6647    8.6338 H           1 M4S       0.0542
     17 H5          5.0626   -8.1706   11.6736 H           1 M4S       0.0542
     18 H6          2.5328   -6.3572    9.1953 H           1 M4S       0.0577
     19 H7          3.2485   -7.9185    9.6156 H           1 M4S       0.0577
     20 H8          3.8250   -7.0176    8.1859 H           1 M4S       0.0577
     21 H9          7.2183   -9.2439   11.8492 H           1 M4S       0.0608
@<TRIPOS>BOND
     1     5     1  ar
     2     1    10  ar
     3     4     2  am
     4     7     3   1
     5     3    11   1
     6     4     6   2
     7     4     8   2
     8    10     4   1
     9     5     7  ar
    10     7     9  ar
    11     9    12  ar
    12    10    12  ar
    13     1    13   1
    14     2    14   1
    15     2    15   1
    16     5    16   1
    17     9    17   1
    18    11    18   1
    19    11    19   1
    20    11    20   1
    21    12    21   1
@<TRIPOS>SUBSTRUCTURE
     1  M4S      1

