@<TRIPOS>MOLECULE
3lka_ligand_010
    21    21
SMALL
GAST_HUCK
****
This file was generated by PARSER (from files_GN.cpp)

@<TRIPOS>ATOM
      1 C1          4.4460   -6.9476    9.8251 C.ar        1 M4S      -0.0441
      2 N1          2.4318   -5.0948    8.1786 N.am        1 M4S      -0.2621
      3 O1          7.3067   -8.9962   10.9397 O.3         1 M4S      -0.3212
      4 S1          3.5866   -6.0297    7.3885 S.o2        1 M4S       0.0609
      5 C2          5.3261   -7.6519   10.6643 C.ar        1 M4S      -0.0313
      6 O2          4.4495   -5.0141    6.5231 O.2         1 M4S      -0.1519
      7 C3          6.4507   -8.3063   10.1245 C.ar        1 M4S       0.0908
      8 O3          2.8665   -6.9604    6.3199 O.2         1 M4S      -0.1519
      9 C4          6.6670   -8.2832    8.7313 C.ar        1 M4S      -0.0313
     10 C5          4.6681   -6.9094    8.4308 C.ar        1 M4S       0.0967
     11 C6          8.3003   -8.1426   11.5342 C.3         1 M4S       0.0594
     12 C7          5.7863   -7.5797    7.8901 C.ar        1 M4S      -0.0441
     13 H1          3.6478   -6.4657   10.2400 H           1 M4S       0.0608
     14 H2          2.5350   -4.1321    8.2207 H           1 M4S       0.1633
     15 H3          1.6597   -5.5215    8.5797 H           1 M4S       0.1633
     16 H4          5.1569   -7.6764   11.6720 H           1 M4S       0.0542
     17 H5          7.4771   -8.7615    8.3305 H           1 M4S       0.0542
     18 H6          8.9475   -8.7550   12.1602 H           1 M4S       0.0577
     19 H7          7.8428   -7.3778   12.1672 H           1 M4S       0.0577
     20 H8          8.9169   -7.6591   10.7714 H           1 M4S       0.0577
     21 H9          5.9690   -7.5553    6.8833 H           1 M4S       0.0608
@<TRIPOS>BOND
     1     5     1  ar
     2     1    10  ar
     3     4     2  am
     4     7     3   1
     5     3    11   1
     6     4     6   2
     7     4     8   2
     8    10     4   1
     9     5     7  ar
    10     7     9  ar
    11     9    12  ar
    12    10    12  ar
    13     1    13   1
    14     2    14   1
    15     2    15   1
    16     5    16   1
    17     9    17   1
    18    11    18   1
    19    11    19   1
    20    11    20   1
    21    12    21   1
@<TRIPOS>SUBSTRUCTURE
     1  M4S      1

