@<TRIPOS>MOLECULE
3lka_ligand_018
    21    21
SMALL
GAST_HUCK
****
This file was generated by PARSER (from files_GN.cpp)

@<TRIPOS>ATOM
      1 C1          2.9229    0.7708    2.4749 C.ar        1 M4S      -0.0441
      2 N1         -0.2459   -1.2186    4.2038 N.am        1 M4S      -0.2621
      3 O1          2.7617    2.0029   -1.0015 O.3         1 M4S      -0.3212
      4 S1          1.0667   -0.1703    4.2622 S.o2        1 M4S       0.0609
      5 C2          3.3247    1.2808    1.2269 C.ar        1 M4S      -0.0313
      6 O2          2.2736   -0.9982    4.8853 O.2         1 M4S      -0.1519
      7 C3          2.3754    1.4828    0.2038 C.ar        1 M4S       0.0908
      8 O3          0.7694    0.9954    5.3031 O.2         1 M4S      -0.1519
      9 C4          1.0161    1.2021    0.4533 C.ar        1 M4S      -0.0313
     10 C5          1.5668    0.4656    2.7201 C.ar        1 M4S       0.0967
     11 C6          3.1456    0.9966   -1.9554 C.3         1 M4S       0.0594
     12 C7          0.6162    0.6916    1.7022 C.ar        1 M4S      -0.0441
     13 H1          3.6262    0.6231    3.2023 H           1 M4S       0.0608
     14 H2         -0.1109   -2.1712    4.3279 H           1 M4S       0.1633
     15 H3         -1.1177   -0.8844    3.9367 H           1 M4S       0.1633
     16 H4          4.3108    1.4955    1.0607 H           1 M4S       0.0542
     17 H5          0.3168    1.3692   -0.2740 H           1 M4S       0.0542
     18 H6          3.4376    1.4967   -2.8776 H           1 M4S       0.0577
     19 H7          2.3132    0.3231   -2.1820 H           1 M4S       0.0577
     20 H8          4.0013    0.4146   -1.5971 H           1 M4S       0.0577
     21 H9         -0.3732    0.4901    1.8625 H           1 M4S       0.0608
@<TRIPOS>BOND
     1     5     1  ar
     2     1    10  ar
     3     4     2  am
     4     7     3   1
     5     3    11   1
     6     4     6   2
     7     4     8   2
     8    10     4   1
     9     5     7  ar
    10     7     9  ar
    11     9    12  ar
    12    10    12  ar
    13     1    13   1
    14     2    14   1
    15     2    15   1
    16     5    16   1
    17     9    17   1
    18    11    18   1
    19    11    19   1
    20    11    20   1
    21    12    21   1
@<TRIPOS>SUBSTRUCTURE
     1  M4S      1

