@<TRIPOS>MOLECULE
3lka_ligand_004
    21    21
SMALL
GAST_HUCK
****
This file was generated by PARSER (from files_GN.cpp)

@<TRIPOS>ATOM
      1 C1          3.3950   -7.2496    6.7370 C.ar        1 M4S      -0.0441
      2 N1          3.6400   -4.2291    9.5964 N.am        1 M4S      -0.2621
      3 O1          0.7575   -7.2434    4.1857 O.3         1 M4S      -0.3212
      4 S1          4.0125   -5.7233    8.9246 S.o2        1 M4S       0.0609
      5 C2          2.6187   -7.5842    5.6144 C.ar        1 M4S      -0.0313
      6 O2          3.7179   -6.8392   10.0246 O.2         1 M4S      -0.1519
      7 C3          1.4935   -6.8119    5.2573 C.ar        1 M4S       0.0908
      8 O3          5.5631   -5.7953    8.5693 O.2         1 M4S      -0.1519
      9 C4          1.1401   -5.7074    6.0692 C.ar        1 M4S      -0.0313
     10 C5          3.0493   -6.1319    7.5310 C.ar        1 M4S       0.0967
     11 C6          0.2337   -6.2405    3.2952 C.3         1 M4S       0.0594
     12 C7          1.9056   -5.3736    7.1996 C.ar        1 M4S      -0.0441
     13 H1          4.2052   -7.8314    6.9746 H           1 M4S       0.0608
     14 H2          3.6271   -4.1314   10.5619 H           1 M4S       0.1633
     15 H3          3.2879   -3.5183    9.0317 H           1 M4S       0.1633
     16 H4          2.8791   -8.3954    5.0489 H           1 M4S       0.0542
     17 H5          0.3190   -5.1444    5.8514 H           1 M4S       0.0542
     18 H6         -0.2262   -6.7600    2.4566 H           1 M4S       0.0577
     19 H7          1.0402   -5.5954    2.9160 H           1 M4S       0.0577
     20 H8         -0.5263   -5.6211    3.7940 H           1 M4S       0.0577
     21 H9          1.6342   -4.5702    7.7721 H           1 M4S       0.0608
@<TRIPOS>BOND
     1     5     1  ar
     2     1    10  ar
     3     4     2  am
     4     7     3   1
     5     3    11   1
     6     4     6   2
     7     4     8   2
     8    10     4   1
     9     5     7  ar
    10     7     9  ar
    11     9    12  ar
    12    10    12  ar
    13     1    13   1
    14     2    14   1
    15     2    15   1
    16     5    16   1
    17     9    17   1
    18    11    18   1
    19    11    19   1
    20    11    20   1
    21    12    21   1
@<TRIPOS>SUBSTRUCTURE
     1  M4S      1

