@<TRIPOS>MOLECULE
3lka_ligand_021
    21    21
SMALL
GAST_HUCK
****
This file was generated by PARSER (from files_GN.cpp)

@<TRIPOS>ATOM
      1 C1         -0.8224   -1.1805    3.6354 C.ar        1 M4S      -0.0441
      2 N1          1.7661   -0.8529    5.8999 N.am        1 M4S      -0.2621
      3 O1         -4.0069    0.3467    2.5495 O.3         1 M4S      -0.3212
      4 S1          1.6218   -0.1923    4.3615 S.o2        1 M4S       0.0609
      5 C2         -2.1542   -1.0564    3.1986 C.ar        1 M4S      -0.0313
      6 O2          2.3754   -1.1991    3.3882 O.2         1 M4S      -0.1519
      7 C3         -2.6987    0.2158    2.9280 C.ar        1 M4S       0.0908
      8 O3          2.4662    1.1533    4.2859 O.2         1 M4S      -0.1519
      9 C4         -1.9054    1.3645    3.1226 C.ar        1 M4S      -0.0313
     10 C5         -0.0222   -0.0314    3.8127 C.ar        1 M4S       0.0967
     11 C6         -4.2117    0.2057    1.1332 C.3         1 M4S       0.0594
     12 C7         -0.5725    1.2424    3.5563 C.ar        1 M4S      -0.0441
     13 H1         -0.4461   -2.1123    3.8274 H           1 M4S       0.0608
     14 H2          2.0301   -1.7798    6.0077 H           1 M4S       0.1633
     15 H3          1.5969   -0.3059    6.6824 H           1 M4S       0.1633
     16 H4         -2.7279   -1.8944    3.0797 H           1 M4S       0.0542
     17 H5         -2.2979    2.2928    2.9544 H           1 M4S       0.0542
     18 H6         -5.2707    0.3648    0.9280 H           1 M4S       0.0577
     19 H7         -3.9442   -0.7974    0.7917 H           1 M4S       0.0577
     20 H8         -3.6402    0.9468    0.5680 H           1 M4S       0.0577
     21 H9         -0.0148    2.0890    3.6915 H           1 M4S       0.0608
@<TRIPOS>BOND
     1     5     1  ar
     2     1    10  ar
     3     4     2  am
     4     7     3   1
     5     3    11   1
     6     4     6   2
     7     4     8   2
     8    10     4   1
     9     5     7  ar
    10     7     9  ar
    11     9    12  ar
    12    10    12  ar
    13     1    13   1
    14     2    14   1
    15     2    15   1
    16     5    16   1
    17     9    17   1
    18    11    18   1
    19    11    19   1
    20    11    20   1
    21    12    21   1
@<TRIPOS>SUBSTRUCTURE
     1  M4S      1

