@<TRIPOS>MOLECULE
3lka_ligand_019
    21    21
SMALL
GAST_HUCK
****
This file was generated by PARSER (from files_GN.cpp)

@<TRIPOS>ATOM
      1 C1          3.8799   -4.8536    6.0865 C.ar        1 M4S      -0.0441
      2 N1          3.7030   -4.7804    9.4463 N.am        1 M4S      -0.2621
      3 O1          2.9397   -3.3401    2.8451 O.3         1 M4S      -0.3212
      4 S1          2.5369   -5.3923    8.4023 S.o2        1 M4S       0.0609
      5 C2          3.9821   -4.3647    4.7697 C.ar        1 M4S      -0.0313
      6 O2          1.1151   -5.0624    9.0333 O.2         1 M4S      -0.1519
      7 C3          2.8474   -3.8450    4.1136 C.ar        1 M4S       0.0908
      8 O3          2.6295   -6.9809    8.4348 O.2         1 M4S      -0.1519
      9 C4          1.6189   -3.7842    4.7978 C.ar        1 M4S      -0.0313
     10 C5          2.6472   -4.8019    6.7674 C.ar        1 M4S       0.0967
     11 C6          2.9698   -4.3475    1.8182 C.3         1 M4S       0.0594
     12 C7          1.5169   -4.2675    6.1146 C.ar        1 M4S      -0.0441
     13 H1          4.7141   -5.2368    6.5415 H           1 M4S       0.0608
     14 H2          3.4599   -4.1446   10.1429 H           1 M4S       0.1633
     15 H3          4.5982   -5.1496    9.4292 H           1 M4S       0.1633
     16 H4          4.8829   -4.3930    4.2900 H           1 M4S       0.0542
     17 H5          0.7936   -3.3864    4.3398 H           1 M4S       0.0542
     18 H6          3.0304   -3.8496    0.8521 H           1 M4S       0.0577
     19 H7          2.0637   -4.9569    1.8383 H           1 M4S       0.0577
     20 H8          3.8450   -4.9962    1.9187 H           1 M4S       0.0577
     21 H9          0.6119   -4.2241    6.5850 H           1 M4S       0.0608
@<TRIPOS>BOND
     1     5     1  ar
     2     1    10  ar
     3     4     2  am
     4     7     3   1
     5     3    11   1
     6     4     6   2
     7     4     8   2
     8    10     4   1
     9     5     7  ar
    10     7     9  ar
    11     9    12  ar
    12    10    12  ar
    13     1    13   1
    14     2    14   1
    15     2    15   1
    16     5    16   1
    17     9    17   1
    18    11    18   1
    19    11    19   1
    20    11    20   1
    21    12    21   1
@<TRIPOS>SUBSTRUCTURE
     1  M4S      1

