@<TRIPOS>MOLECULE
3lka_ligand_000
    21    21
SMALL
GAST_HUCK
****
This file was generated by PARSER (from files_GN.cpp)

@<TRIPOS>ATOM
      1 C1          5.0877   -7.4712    9.4312 C.ar        1 M4S      -0.0441
      2 N1          3.5152   -4.2723    9.4635 N.am        1 M4S      -0.2621
      3 O1          8.1557   -8.9933    8.0513 O.3         1 M4S      -0.3212
      4 S1          3.2649   -5.6481    8.5358 S.o2        1 M4S       0.0609
      5 C2          6.2414   -8.2676    9.3114 C.ar        1 M4S      -0.0313
      6 O2          2.7695   -5.1506    7.1146 O.2         1 M4S      -0.1519
      7 C3          7.0247   -8.2100    8.1400 C.ar        1 M4S       0.0908
      8 O3          2.0460   -6.4770    9.1369 O.2         1 M4S      -0.1519
      9 C4          6.6005   -7.3763    7.0754 C.ar        1 M4S      -0.0313
     10 C5          4.6878   -6.6270    8.3727 C.ar        1 M4S       0.0967
     11 C6          9.3661   -8.2457    7.8059 C.3         1 M4S       0.0594
     12 C7          5.4687   -6.5678    7.1988 C.ar        1 M4S      -0.0441
     13 H1          4.5305   -7.5194   10.2864 H           1 M4S       0.0608
     14 H2          3.2520   -3.4243    9.1004 H           1 M4S       0.1633
     15 H3          3.6584   -4.3551   10.4133 H           1 M4S       0.1633
     16 H4          6.5052   -8.8921   10.0818 H           1 M4S       0.0542
     17 H5          7.1371   -7.3504    6.2087 H           1 M4S       0.0542
     18 H6         10.1886   -8.9486    7.7151 H           1 M4S       0.0577
     19 H7          9.5705   -7.5392    8.6195 H           1 M4S       0.0577
     20 H8          9.3254   -7.6931    6.8633 H           1 M4S       0.0577
     21 H9          5.2207   -5.9642    6.4156 H           1 M4S       0.0608
@<TRIPOS>BOND
     1     5     1  ar
     2     1    10  ar
     3     4     2  am
     4     7     3   1
     5     3    11   1
     6     4     6   2
     7     4     8   2
     8    10     4   1
     9     5     7  ar
    10     7     9  ar
    11     9    12  ar
    12    10    12  ar
    13     1    13   1
    14     2    14   1
    15     2    15   1
    16     5    16   1
    17     9    17   1
    18    11    18   1
    19    11    19   1
    20    11    20   1
    21    12    21   1
@<TRIPOS>SUBSTRUCTURE
     1  M4S      1

