@<TRIPOS>MOLECULE
3lka_ligand_020
    21    21
SMALL
GAST_HUCK
****
This file was generated by PARSER (from files_GN.cpp)

@<TRIPOS>ATOM
      1 C1          9.8549   -8.4935    7.5162 C.ar        1 M4S      -0.0441
      2 N1          8.6999   -6.7632    9.9754 N.am        1 M4S      -0.2621
      3 O1         10.5290  -11.5105    5.4508 O.3         1 M4S      -0.3212
      4 S1          9.8209   -7.9958   10.1970 S.o2        1 M4S       0.0609
      5 C2         10.0275   -9.3148    6.3889 C.ar        1 M4S      -0.0313
      6 O2          9.3239   -8.8520   11.4437 O.2         1 M4S      -0.1519
      7 C3         10.3675  -10.6781    6.5328 C.ar        1 M4S       0.0908
      8 O3         11.2022   -7.3569   10.6591 O.2         1 M4S      -0.1519
      9 C4         10.6187  -11.1824    7.8273 C.ar        1 M4S      -0.0313
     10 C5         10.0514   -9.0179    8.8096 C.ar        1 M4S       0.0967
     11 C6          9.3985  -11.6237    4.5602 C.3         1 M4S       0.0594
     12 C7         10.4648  -10.3579    8.9583 C.ar        1 M4S      -0.0441
     13 H1          9.5791   -7.5180    7.3802 H           1 M4S       0.0608
     14 H2          7.8163   -6.8338   10.3712 H           1 M4S       0.1633
     15 H3          8.9211   -5.9973    9.4196 H           1 M4S       0.1633
     16 H4          9.8914   -8.9014    5.4658 H           1 M4S       0.0542
     17 H5         10.9232  -12.1534    7.9505 H           1 M4S       0.0542
     18 H6          9.6259  -12.3735    3.8030 H           1 M4S       0.0577
     19 H7          9.2039  -10.6820    4.0412 H           1 M4S       0.0577
     20 H8          8.4998  -11.9320    5.1008 H           1 M4S       0.0577
     21 H9         10.6535  -10.7487    9.8865 H           1 M4S       0.0608
@<TRIPOS>BOND
     1     5     1  ar
     2     1    10  ar
     3     4     2  am
     4     7     3   1
     5     3    11   1
     6     4     6   2
     7     4     8   2
     8    10     4   1
     9     5     7  ar
    10     7     9  ar
    11     9    12  ar
    12    10    12  ar
    13     1    13   1
    14     2    14   1
    15     2    15   1
    16     5    16   1
    17     9    17   1
    18    11    18   1
    19    11    19   1
    20    11    20   1
    21    12    21   1
@<TRIPOS>SUBSTRUCTURE
     1  M4S      1

