@<TRIPOS>MOLECULE
3lka_ligand_007
    21    21
SMALL
GAST_HUCK
****
This file was generated by PARSER (from files_GN.cpp)

@<TRIPOS>ATOM
      1 C1         11.7508   -8.5184    9.0274 C.ar        1 M4S      -0.0441
      2 N1          9.5514   -7.7315    6.8252 N.am        1 M4S      -0.2621
      3 O1         13.5265   -9.2923   12.1900 O.3         1 M4S      -0.3212
      4 S1          9.1242   -7.9505    8.4332 S.o2        1 M4S       0.0609
      5 C2         12.7992   -8.8300    9.9140 C.ar        1 M4S      -0.0313
      6 O2          8.2009   -9.2475    8.4476 O.2         1 M4S      -0.1519
      7 C3         12.5584   -8.9221   11.3018 C.ar        1 M4S       0.0908
      8 O3          8.1980   -6.7684    8.9548 O.2         1 M4S      -0.1519
      9 C4         11.2544   -8.7050   11.7824 C.ar        1 M4S      -0.0313
     10 C5         10.4372   -8.3054    9.5163 C.ar        1 M4S       0.0967
     11 C6         14.7571   -8.5536   12.1111 C.3         1 M4S       0.0594
     12 C7         10.1996   -8.4017   10.9025 C.ar        1 M4S      -0.0441
     13 H1         11.9402   -8.4700    8.0246 H           1 M4S       0.0608
     14 H2          9.1536   -8.3111    6.1516 H           1 M4S       0.1633
     15 H3         10.3234   -7.1849    6.6053 H           1 M4S       0.1633
     16 H4         13.7414   -8.9946    9.5415 H           1 M4S       0.0542
     17 H5         11.0578   -8.7841   12.7854 H           1 M4S       0.0542
     18 H6         15.3599   -8.7719   12.9934 H           1 M4S       0.0577
     19 H7         14.5929   -7.4732   12.0818 H           1 M4S       0.0577
     20 H8         15.3213   -8.8568   11.2253 H           1 M4S       0.0577
     21 H9          9.2614   -8.2685   11.2760 H           1 M4S       0.0608
@<TRIPOS>BOND
     1     5     1  ar
     2     1    10  ar
     3     4     2  am
     4     7     3   1
     5     3    11   1
     6     4     6   2
     7     4     8   2
     8    10     4   1
     9     5     7  ar
    10     7     9  ar
    11     9    12  ar
    12    10    12  ar
    13     1    13   1
    14     2    14   1
    15     2    15   1
    16     5    16   1
    17     9    17   1
    18    11    18   1
    19    11    19   1
    20    11    20   1
    21    12    21   1
@<TRIPOS>SUBSTRUCTURE
     1  M4S      1

