@<TRIPOS>MOLECULE
3lka_ligand_023
    21    21
SMALL
GAST_HUCK
****
This file was generated by PARSER (from files_GN.cpp)

@<TRIPOS>ATOM
      1 C1          5.1589   -7.1827   10.0585 C.ar        1 M4S      -0.0441
      2 N1          6.8897   -9.7657   11.2088 N.am        1 M4S      -0.2621
      3 O1          3.0885   -5.5860    7.4410 O.3         1 M4S      -0.3212
      4 S1          7.4334   -8.6895   10.0395 S.o2        1 M4S       0.0609
      5 C2          4.1382   -6.4361    9.4481 C.ar        1 M4S      -0.0313
      6 O2          8.2049   -9.5849    8.9771 O.2         1 M4S      -0.1519
      7 C3          4.0893   -6.2983    8.0447 C.ar        1 M4S       0.0908
      8 O3          8.5412   -7.7477   10.6830 O.2         1 M4S      -0.1519
      9 C4          5.1080   -6.8718    7.2577 C.ar        1 M4S      -0.0313
     10 C5          6.1673   -7.7760    9.2698 C.ar        1 M4S       0.0967
     11 C6          1.8208   -6.2695    7.4616 C.3         1 M4S       0.0594
     12 C7          6.1373   -7.6111    7.8673 C.ar        1 M4S      -0.0441
     13 H1          5.1532   -7.2920   11.0769 H           1 M4S       0.0608
     14 H2          6.8721  -10.7182   11.0241 H           1 M4S       0.1633
     15 H3          6.6218   -9.4372   12.0788 H           1 M4S       0.1633
     16 H4          3.4062   -6.0206   10.0257 H           1 M4S       0.0542
     17 H5          5.0948   -6.7669    6.2397 H           1 M4S       0.0542
     18 H6          1.0786   -5.6461    6.9656 H           1 M4S       0.0577
     19 H7          1.4757   -6.4447    8.4836 H           1 M4S       0.0577
     20 H8          1.8860   -7.2226    6.9332 H           1 M4S       0.0577
     21 H9          6.8569   -8.0331    7.2772 H           1 M4S       0.0608
@<TRIPOS>BOND
     1     5     1  ar
     2     1    10  ar
     3     4     2  am
     4     7     3   1
     5     3    11   1
     6     4     6   2
     7     4     8   2
     8    10     4   1
     9     5     7  ar
    10     7     9  ar
    11     9    12  ar
    12    10    12  ar
    13     1    13   1
    14     2    14   1
    15     2    15   1
    16     5    16   1
    17     9    17   1
    18    11    18   1
    19    11    19   1
    20    11    20   1
    21    12    21   1
@<TRIPOS>SUBSTRUCTURE
     1  M4S      1

