@<TRIPOS>MOLECULE
3mfv_ligand_034
    25    25
SMALL
GAST_HUCK
****
This file was generated by PARSER (from files_GN.cpp)

@<TRIPOS>ATOM
      1 CA        -20.3269   11.9814   -6.3306 C.3         1 Z70       0.0300
      2 C         -19.7229   10.6576   -6.0687 C.2         1 Z70       0.0846
      3 C3        -19.8468   14.5576   -4.2091 C.2         1 Z70       0.0382
      4 C4        -21.3086   15.3815   -2.8335 C.2         1 Z70       0.1941
      5 C5        -20.1796   15.8492   -4.6079 C.2         1 Z70      -0.0516
      6 C6        -19.3188   13.1677   -6.2686 C.3         1 Z70       0.0122
      7 C7        -18.8862   13.6434   -4.8509 C.3         1 Z70       0.0023
      8 N         -21.5060   12.1603   -5.4668 N.4         1 Z70       0.2328
      9 N2        -20.5594   14.3043   -3.1038 N.pl3       1 Z70      -0.2452
     10 N3        -21.0901   16.3366   -3.7516 N.2         1 Z70      -0.3473
     11 N4        -22.1569   15.4898   -1.8039 N.pl3       1 Z70      -0.3004
     12 OXT       -19.1173   10.3845   -4.8911 O.co2       1 Z70      -0.5643
     13 O         -20.0391    9.6163   -6.8716 O.co2       1 Z70      -0.5643
     14 H1        -20.6973   11.9661   -7.3558 H           1 Z70       0.1026
     15 H2        -19.8031   16.3459   -5.4155 H           1 Z70       0.0251
     16 H3        -19.7499   14.0144   -6.8159 H           1 Z70       0.0359
     17 H4        -18.4203   12.8714   -6.8222 H           1 Z70       0.0359
     18 H5        -18.7440   12.7822   -4.2005 H           1 Z70       0.0424
     19 H6        -17.9271   14.1633   -4.9222 H           1 Z70       0.0424
     20 H7        -22.1939   11.4350   -5.6837 H           1 Z70       0.2010
     21 H8        -21.9266   13.0805   -5.6350 H           1 Z70       0.2010
     22 H9        -21.2385   12.0758   -4.4801 H           1 Z70       0.2010
     23 H10       -20.5540   13.4701   -2.6026 H           1 Z70       0.2341
     24 H11       -22.6777   16.3001   -1.6926 H           1 Z70       0.1788
     25 H12       -22.2646   14.7526   -1.1858 H           1 Z70       0.1788
@<TRIPOS>BOND
     1     1     2   1
     2     6     1   1
     3     1     8   1
     4     2    12  ar
     5     2    13  ar
     6     3     5   2
     7     7     3   1
     8     3     9   1
     9     9     4   1
    10     4    10   2
    11     4    11   1
    12     5    10   1
    13     6     7   1
    14     1    14   1
    15     5    15   1
    16     6    16   1
    17     6    17   1
    18     7    18   1
    19     7    19   1
    20     8    20   1
    21     8    21   1
    22     8    22   1
    23     9    23   1
    24    11    24   1
    25    11    25   1
@<TRIPOS>SUBSTRUCTURE
     1  Z70      1

