@<TRIPOS>MOLECULE
3mfv_ligand_018
    25    25
SMALL
GAST_HUCK
****
This file was generated by PARSER (from files_GN.cpp)

@<TRIPOS>ATOM
      1 CA        -16.7154   16.8080   -5.5817 C.3         1 Z70       0.0300
      2 C         -17.7055   17.2469   -6.5867 C.2         1 Z70       0.0846
      3 C3        -19.7381   15.4148   -4.7002 C.2         1 Z70       0.0382
      4 C4        -21.7559   15.5992   -5.5042 C.2         1 Z70       0.1941
      5 C5        -20.5099   16.1991   -3.8476 C.2         1 Z70      -0.0516
      6 C6        -17.3449   16.1997   -4.2951 C.3         1 Z70       0.0122
      7 C7        -18.3273   15.0127   -4.5141 C.3         1 Z70       0.0023
      8 N         -15.8608   17.9505   -5.2161 N.4         1 Z70       0.2328
      9 N2        -20.5431   15.0619   -5.7127 N.pl3       1 Z70      -0.2452
     10 N3        -21.7448   16.3093   -4.3601 N.2         1 Z70      -0.3473
     11 N4        -22.8131   15.4333   -6.3166 N.pl3       1 Z70      -0.3004
     12 OXT       -17.8336   16.5851   -7.7582 O.co2       1 Z70      -0.5643
     13 O         -18.5141   18.3057   -6.3599 O.co2       1 Z70      -0.5643
     14 H1        -16.0656   16.0536   -6.0346 H           1 Z70       0.1026
     15 H2        -20.1960   16.6224   -2.9715 H           1 Z70       0.0251
     16 H3        -17.8382   16.9881   -3.7176 H           1 Z70       0.0359
     17 H4        -16.5197   15.8290   -3.6803 H           1 Z70       0.0359
     18 H5        -17.9991   14.4257   -5.3757 H           1 Z70       0.0424
     19 H6        -18.2886   14.3584   -3.6391 H           1 Z70       0.0424
     20 H7        -15.5047   18.4018   -6.0619 H           1 Z70       0.2010
     21 H8        -15.0684   17.6185   -4.6576 H           1 Z70       0.2010
     22 H9        -16.4028   18.6279   -4.6691 H           1 Z70       0.2010
     23 H10       -20.2944   14.5004   -6.4648 H           1 Z70       0.2341
     24 H11       -23.6773   15.8224   -6.0967 H           1 Z70       0.1788
     25 H12       -22.7204   14.8912   -7.1168 H           1 Z70       0.1788
@<TRIPOS>BOND
     1     1     2   1
     2     6     1   1
     3     1     8   1
     4     2    12  ar
     5     2    13  ar
     6     3     5   2
     7     7     3   1
     8     3     9   1
     9     9     4   1
    10     4    10   2
    11     4    11   1
    12     5    10   1
    13     6     7   1
    14     1    14   1
    15     5    15   1
    16     6    16   1
    17     6    17   1
    18     7    18   1
    19     7    19   1
    20     8    20   1
    21     8    21   1
    22     8    22   1
    23     9    23   1
    24    11    24   1
    25    11    25   1
@<TRIPOS>SUBSTRUCTURE
     1  Z70      1

