@<TRIPOS>MOLECULE
3mfv_ligand_016
    25    25
SMALL
GAST_HUCK
****
This file was generated by PARSER (from files_GN.cpp)

@<TRIPOS>ATOM
      1 CA        -19.6882   14.7375   -2.9640 C.3         1 Z70       0.0300
      2 C         -18.5899   15.1499   -2.0655 C.2         1 Z70       0.0846
      3 C3        -20.6391   16.9331   -5.2855 C.2         1 Z70       0.0382
      4 C4        -22.7417   17.3087   -5.7018 C.2         1 Z70       0.1941
      5 C5        -20.9057   18.2952   -5.1657 C.2         1 Z70      -0.0516
      6 C6        -19.3701   14.8490   -4.4862 C.3         1 Z70       0.0122
      7 C7        -19.3288   16.2613   -5.1432 C.3         1 Z70       0.0023
      8 N         -20.8978   15.4650   -2.5656 N.4         1 Z70       0.2328
      9 N2        -21.8018   16.3556   -5.6219 N.pl3       1 Z70      -0.2452
     10 N3        -22.2050   18.5060   -5.4253 N.2         1 Z70      -0.3473
     11 N4        -24.0237   17.1145   -6.0461 N.pl3       1 Z70      -0.3004
     12 OXT       -17.8897   16.2911   -2.2732 O.co2       1 Z70      -0.5643
     13 O         -18.4392   14.5264   -0.8767 O.co2       1 Z70      -0.5643
     14 H1        -19.8874   13.6814   -2.7597 H           1 Z70       0.1026
     15 H2        -20.2271   19.0248   -4.9512 H           1 Z70       0.0251
     16 H3        -20.1058   14.2506   -5.0308 H           1 Z70       0.0359
     17 H4        -18.3984   14.3752   -4.6611 H           1 Z70       0.0359
     18 H5        -18.6383   16.9076   -4.5970 H           1 Z70       0.0424
     19 H6        -18.9274   16.1466   -6.1539 H           1 Z70       0.0424
     20 H7        -21.0286   15.3604   -1.5597 H           1 Z70       0.2010
     21 H8        -21.7178   15.0967   -3.0515 H           1 Z70       0.2010
     22 H9        -20.7812   16.4557   -2.7818 H           1 Z70       0.2010
     23 H10       -21.9384   15.4091   -5.7918 H           1 Z70       0.2341
     24 H11       -24.6223   17.8733   -6.1249 H           1 Z70       0.1788
     25 H12       -24.3462   16.2254   -6.2478 H           1 Z70       0.1788
@<TRIPOS>BOND
     1     1     2   1
     2     6     1   1
     3     1     8   1
     4     2    12  ar
     5     2    13  ar
     6     3     5   2
     7     7     3   1
     8     3     9   1
     9     9     4   1
    10     4    10   2
    11     4    11   1
    12     5    10   1
    13     6     7   1
    14     1    14   1
    15     5    15   1
    16     6    16   1
    17     6    17   1
    18     7    18   1
    19     7    19   1
    20     8    20   1
    21     8    21   1
    22     8    22   1
    23     9    23   1
    24    11    24   1
    25    11    25   1
@<TRIPOS>SUBSTRUCTURE
     1  Z70      1

