@<TRIPOS>MOLECULE
3mfv_ligand_015
    25    25
SMALL
GAST_HUCK
****
This file was generated by PARSER (from files_GN.cpp)

@<TRIPOS>ATOM
      1 CA        -19.2715   13.6739   -5.4082 C.3         1 Z70       0.0300
      2 C         -18.1642   14.6433   -5.5954 C.2         1 Z70       0.0846
      3 C3        -21.6470   15.8484   -6.0989 C.2         1 Z70       0.0382
      4 C4        -23.3484   16.6514   -5.0163 C.2         1 Z70       0.1941
      5 C5        -21.2134   16.8537   -5.2443 C.2         1 Z70      -0.0516
      6 C6        -20.3618   13.6939   -6.5253 C.3         1 Z70       0.0122
      7 C7        -20.8523   15.0702   -7.0646 C.3         1 Z70       0.0023
      8 N         -19.8706   13.7957   -4.0628 N.4         1 Z70       0.2328
      9 N2        -22.9739   15.7520   -5.9383 N.pl3       1 Z70      -0.2452
     10 N3        -22.2753   17.3233   -4.5682 N.2         1 Z70      -0.3473
     11 N4        -24.6170   16.8412   -4.6234 N.pl3       1 Z70      -0.3004
     12 OXT       -17.5643   15.2396   -4.5389 O.co2       1 Z70      -0.5643
     13 O         -17.5266   14.7271   -6.7878 O.co2       1 Z70      -0.5643
     14 H1        -18.8123   12.6830   -5.4209 H           1 Z70       0.1026
     15 H2        -20.2565   17.2006   -5.1492 H           1 Z70       0.0251
     16 H3        -21.2355   13.1314   -6.1775 H           1 Z70       0.0359
     17 H4        -19.9645   13.1426   -7.3801 H           1 Z70       0.0359
     18 H5        -20.0091   15.6711   -7.4041 H           1 Z70       0.0424
     19 H6        -21.4831   14.8914   -7.9477 H           1 Z70       0.0424
     20 H7        -19.1288   13.8922   -3.3648 H           1 Z70       0.2010
     21 H8        -20.4098   12.9551   -3.8439 H           1 Z70       0.2010
     22 H9        -20.4808   14.6118   -4.0201 H           1 Z70       0.2010
     23 H10       -23.5708   15.1610   -6.4154 H           1 Z70       0.2341
     24 H11       -24.8305   17.5171   -3.9604 H           1 Z70       0.1788
     25 H12       -25.3125   16.2877   -5.0038 H           1 Z70       0.1788
@<TRIPOS>BOND
     1     1     2   1
     2     6     1   1
     3     1     8   1
     4     2    12  ar
     5     2    13  ar
     6     3     5   2
     7     7     3   1
     8     3     9   1
     9     9     4   1
    10     4    10   2
    11     4    11   1
    12     5    10   1
    13     6     7   1
    14     1    14   1
    15     5    15   1
    16     6    16   1
    17     6    17   1
    18     7    18   1
    19     7    19   1
    20     8    20   1
    21     8    21   1
    22     8    22   1
    23     9    23   1
    24    11    24   1
    25    11    25   1
@<TRIPOS>SUBSTRUCTURE
     1  Z70      1

