@<TRIPOS>MOLECULE
3mfv_ligand_029
    25    25
SMALL
GAST_HUCK
****
This file was generated by PARSER (from files_GN.cpp)

@<TRIPOS>ATOM
      1 CA        -18.4988   19.8981   -6.9299 C.3         1 Z70       0.0300
      2 C         -19.9128   20.0463   -7.3387 C.2         1 Z70       0.0846
      3 C3        -17.8396   16.0261   -6.8291 C.2         1 Z70       0.0382
      4 C4        -16.4296   14.4244   -7.2501 C.2         1 Z70       0.1941
      5 C5        -18.4972   14.9837   -7.4761 C.2         1 Z70      -0.0516
      6 C6        -17.9037   18.5012   -7.2714 C.3         1 Z70       0.0122
      7 C7        -18.4221   17.3185   -6.4072 C.3         1 Z70       0.0023
      8 N         -18.3234   20.2641   -5.5130 N.4         1 Z70       0.2328
      9 N2        -16.5625   15.6413   -6.7029 N.pl3       1 Z70      -0.2452
     10 N3        -17.6119   14.0080   -7.7327 N.2         1 Z70      -0.3473
     11 N4        -15.2780   13.7431   -7.2851 N.pl3       1 Z70      -0.3004
     12 OXT       -20.9204   19.5023   -6.6199 O.co2       1 Z70      -0.5643
     13 O         -20.2375   20.7905   -8.4198 O.co2       1 Z70      -0.5643
     14 H1        -17.9180   20.6323   -7.4987 H           1 Z70       0.1026
     15 H2        -19.4850   14.9660   -7.7330 H           1 Z70       0.0251
     16 H3        -16.8191   18.5542   -7.1564 H           1 Z70       0.0359
     17 H4        -18.1047   18.2969   -8.3272 H           1 Z70       0.0359
     18 H5        -18.1768   17.4938   -5.3568 H           1 Z70       0.0424
     19 H6        -19.5102   17.2516   -6.4856 H           1 Z70       0.0424
     20 H7        -18.6487   21.2230   -5.3683 H           1 Z70       0.2010
     21 H8        -17.3324   20.2137   -5.2697 H           1 Z70       0.2010
     22 H9        -18.8459   19.6359   -4.8976 H           1 Z70       0.2010
     23 H10       -15.8448   16.1502   -6.2928 H           1 Z70       0.2341
     24 H11       -15.2403   12.8519   -7.6691 H           1 Z70       0.1788
     25 H12       -14.4907   14.1265   -6.8688 H           1 Z70       0.1788
@<TRIPOS>BOND
     1     1     2   1
     2     6     1   1
     3     1     8   1
     4     2    12  ar
     5     2    13  ar
     6     3     5   2
     7     7     3   1
     8     3     9   1
     9     9     4   1
    10     4    10   2
    11     4    11   1
    12     5    10   1
    13     6     7   1
    14     1    14   1
    15     5    15   1
    16     6    16   1
    17     6    17   1
    18     7    18   1
    19     7    19   1
    20     8    20   1
    21     8    21   1
    22     8    22   1
    23     9    23   1
    24    11    24   1
    25    11    25   1
@<TRIPOS>SUBSTRUCTURE
     1  Z70      1

