@<TRIPOS>MOLECULE
3mfv_ligand_001
    25    25
SMALL
GAST_HUCK
****
This file was generated by PARSER (from files_GN.cpp)

@<TRIPOS>ATOM
      1 CA        -19.5427   14.0857   -8.0559 C.3         1 Z70       0.0300
      2 C         -20.6206   14.7516   -8.8305 C.2         1 Z70       0.0846
      3 C3        -19.8021   11.6136   -5.9611 C.2         1 Z70       0.0382
      4 C4        -21.1441    9.9305   -5.7073 C.2         1 Z70       0.1941
      5 C5        -19.7562   10.8057   -7.0947 C.2         1 Z70      -0.0516
      6 C6        -19.7859   14.0797   -6.5163 C.3         1 Z70       0.0122
      7 C7        -19.1072   12.9026   -5.7462 C.3         1 Z70       0.0023
      8 N         -18.2701   14.7378   -8.4002 N.4         1 Z70       0.2328
      9 N2        -20.6488   11.0333   -5.1098 N.pl3       1 Z70      -0.2452
     10 N3        -20.5971    9.7658   -6.9202 N.2         1 Z70      -0.3473
     11 N4        -22.0780    9.1108   -5.1923 N.pl3       1 Z70      -0.3004
     12 OXT       -20.9622   14.2664  -10.0496 O.co2       1 Z70      -0.5643
     13 O         -21.3486   15.7786   -8.3112 O.co2       1 Z70      -0.5643
     14 H1        -19.4819   13.0555   -8.3996 H           1 Z70       0.1026
     15 H2        -19.2126   10.9800   -7.9366 H           1 Z70       0.0251
     16 H3        -20.8696   14.0740   -6.3182 H           1 Z70       0.0359
     17 H4        -19.4067   15.0328   -6.1059 H           1 Z70       0.0359
     18 H5        -18.0614   12.8208   -6.0494 H           1 Z70       0.0424
     19 H6        -19.1277   13.1315   -4.6832 H           1 Z70       0.0424
     20 H7        -18.1168   14.6685   -9.4074 H           1 Z70       0.2010
     21 H8        -17.5027   14.2768   -7.9094 H           1 Z70       0.2010
     22 H9        -18.2981   15.7307   -8.1328 H           1 Z70       0.2010
     23 H10       -20.8970   11.3645   -4.2370 H           1 Z70       0.2341
     24 H11       -22.3900    8.3607   -5.7239 H           1 Z70       0.1788
     25 H12       -22.4398    9.2751   -4.3100 H           1 Z70       0.1788
@<TRIPOS>BOND
     1     1     2   1
     2     6     1   1
     3     1     8   1
     4     2    12  ar
     5     2    13  ar
     6     3     5   2
     7     7     3   1
     8     3     9   1
     9     9     4   1
    10     4    10   2
    11     4    11   1
    12     5    10   1
    13     6     7   1
    14     1    14   1
    15     5    15   1
    16     6    16   1
    17     6    17   1
    18     7    18   1
    19     7    19   1
    20     8    20   1
    21     8    21   1
    22     8    22   1
    23     9    23   1
    24    11    24   1
    25    11    25   1
@<TRIPOS>SUBSTRUCTURE
     1  Z70      1

