@<TRIPOS>MOLECULE
3mfv_ligand_005
    25    25
SMALL
GAST_HUCK
****
This file was generated by PARSER (from files_GN.cpp)

@<TRIPOS>ATOM
      1 CA        -19.8397   10.5117   -5.5665 C.3         1 Z70       0.0300
      2 C         -21.3012   10.4862   -5.3231 C.2         1 Z70       0.0846
      3 C3        -20.1605   14.1272   -6.6375 C.2         1 Z70       0.0382
      4 C4        -20.3801   15.3679   -8.4033 C.2         1 Z70       0.1941
      5 C5        -21.3572   14.8332   -6.5636 C.2         1 Z70      -0.0516
      6 C6        -19.3394   11.7624   -6.3466 C.3         1 Z70       0.0122
      7 C7        -19.6401   13.1291   -5.6747 C.3         1 Z70       0.0023
      8 N         -19.5083    9.2936   -6.3222 N.4         1 Z70       0.2328
      9 N2        -19.5840   14.4853   -7.7853 N.pl3       1 Z70      -0.2452
     10 N3        -21.4784   15.5909   -7.6625 N.2         1 Z70      -0.3473
     11 N4        -20.1280   15.9407   -9.5942 N.pl3       1 Z70      -0.3004
     12 OXT       -22.1086   11.4984   -5.7086 O.co2       1 Z70      -0.5643
     13 O         -21.9146    9.3617   -4.9047 O.co2       1 Z70      -0.5643
     14 H1        -19.3239   10.4670   -4.5986 H           1 Z70       0.1026
     15 H2        -22.0474   14.7746   -5.8096 H           1 Z70       0.0251
     16 H3        -19.7831   11.7257   -7.3484 H           1 Z70       0.0359
     17 H4        -18.2535   11.6804   -6.4823 H           1 Z70       0.0359
     18 H5        -20.3789   13.0195   -4.8732 H           1 Z70       0.0424
     19 H6        -18.7366   13.5201   -5.2064 H           1 Z70       0.0424
     20 H7        -19.7053    8.4678   -5.7560 H           1 Z70       0.2010
     21 H8        -18.5207    9.2735   -6.5837 H           1 Z70       0.2010
     22 H9        -20.0728    9.2597   -7.1773 H           1 Z70       0.2010
     23 H10       -18.7364   14.1496   -8.1283 H           1 Z70       0.2341
     24 H11       -20.7627   16.5664   -9.9731 H           1 Z70       0.1788
     25 H12       -19.3127   15.7248  -10.0692 H           1 Z70       0.1788
@<TRIPOS>BOND
     1     1     2   1
     2     6     1   1
     3     1     8   1
     4     2    12  ar
     5     2    13  ar
     6     3     5   2
     7     7     3   1
     8     3     9   1
     9     9     4   1
    10     4    10   2
    11     4    11   1
    12     5    10   1
    13     6     7   1
    14     1    14   1
    15     5    15   1
    16     6    16   1
    17     6    17   1
    18     7    18   1
    19     7    19   1
    20     8    20   1
    21     8    21   1
    22     8    22   1
    23     9    23   1
    24    11    24   1
    25    11    25   1
@<TRIPOS>SUBSTRUCTURE
     1  Z70      1

