@<TRIPOS>MOLECULE
3mfv_ligand_021
    25    25
SMALL
GAST_HUCK
****
This file was generated by PARSER (from files_GN.cpp)

@<TRIPOS>ATOM
      1 CA        -20.5842   15.8615   -4.7324 C.3         1 Z70       0.0300
      2 C         -21.8163   16.4962   -5.2548 C.2         1 Z70       0.0846
      3 C3        -18.3935   13.7052   -5.5778 C.2         1 Z70       0.0382
      4 C4        -16.7716   14.5508   -6.7634 C.2         1 Z70       0.1941
      5 C5        -18.1239   12.8684   -6.6607 C.2         1 Z70      -0.0516
      6 C6        -20.7136   14.3057   -4.7475 C.3         1 Z70       0.0122
      7 C7        -19.3979   13.5100   -4.5111 C.3         1 Z70       0.0023
      8 N         -20.2506   16.3349   -3.3765 N.4         1 Z70       0.2328
      9 N2        -17.5352   14.7281   -5.6734 N.pl3       1 Z70      -0.2452
     10 N3        -17.1223   13.4068   -7.3751 N.2         1 Z70      -0.3473
     11 N4        -15.8065   15.3844   -7.1742 N.pl3       1 Z70      -0.3004
     12 OXT       -22.6408   17.2306   -4.4723 O.co2       1 Z70      -0.5643
     13 O         -22.0685   16.4463   -6.5817 O.co2       1 Z70      -0.5643
     14 H1        -19.7706   16.1652   -5.3932 H           1 Z70       0.1026
     15 H2        -18.5991   11.9898   -6.8798 H           1 Z70       0.0251
     16 H3        -21.1428   13.9756   -5.6993 H           1 Z70       0.0359
     17 H4        -21.4179   14.0165   -3.9657 H           1 Z70       0.0359
     18 H5        -18.9546   13.7909   -3.5545 H           1 Z70       0.0424
     19 H6        -19.6503   12.4472   -4.4545 H           1 Z70       0.0424
     20 H7        -20.1234   17.3481   -3.3795 H           1 Z70       0.2010
     21 H8        -19.3907   15.8982   -3.0597 H           1 Z70       0.2010
     22 H9        -21.0061   16.0882   -2.7346 H           1 Z70       0.2010
     23 H10       -17.4712   15.4711   -5.0546 H           1 Z70       0.2341
     24 H11       -15.3036   15.1841   -7.9763 H           1 Z70       0.1788
     25 H12       -15.6151   16.1907   -6.6722 H           1 Z70       0.1788
@<TRIPOS>BOND
     1     1     2   1
     2     6     1   1
     3     1     8   1
     4     2    12  ar
     5     2    13  ar
     6     3     5   2
     7     7     3   1
     8     3     9   1
     9     9     4   1
    10     4    10   2
    11     4    11   1
    12     5    10   1
    13     6     7   1
    14     1    14   1
    15     5    15   1
    16     6    16   1
    17     6    17   1
    18     7    18   1
    19     7    19   1
    20     8    20   1
    21     8    21   1
    22     8    22   1
    23     9    23   1
    24    11    24   1
    25    11    25   1
@<TRIPOS>SUBSTRUCTURE
     1  Z70      1

