@<TRIPOS>MOLECULE
3mfv_ligand_014
    25    25
SMALL
GAST_HUCK
****
This file was generated by PARSER (from files_GN.cpp)

@<TRIPOS>ATOM
      1 CA        -20.6901   13.4340   -5.7092 C.3         1 Z70       0.0300
      2 C         -20.1631   12.0819   -5.9849 C.2         1 Z70       0.0846
      3 C3        -21.3021   16.5835   -5.7549 C.2         1 Z70       0.0382
      4 C4        -23.3484   17.0352   -5.1253 C.2         1 Z70       0.1941
      5 C5        -21.3788   17.8960   -5.2929 C.2         1 Z70      -0.0516
      6 C6        -20.1605   14.4724   -6.7497 C.3         1 Z70       0.0122
      7 C7        -20.0618   15.9557   -6.2746 C.3         1 Z70       0.0023
      8 N         -20.3529   13.7487   -4.3146 N.4         1 Z70       0.2328
      9 N2        -22.5375   16.0723   -5.6212 N.pl3       1 Z70      -0.2452
     10 N3        -22.6355   18.1671   -4.9148 N.2         1 Z70      -0.3473
     11 N4        -24.6591   16.9152   -4.8568 N.pl3       1 Z70      -0.3004
     12 OXT       -18.8220   11.8519   -5.9459 O.co2       1 Z70      -0.5643
     13 O         -20.9865   10.9933   -6.0064 O.co2       1 Z70      -0.5643
     14 H1        -21.7622   13.4078   -5.7673 H           1 Z70       0.1026
     15 H2        -20.6093   18.5641   -5.2563 H           1 Z70       0.0251
     16 H3        -20.8036   14.4260   -7.6390 H           1 Z70       0.0359
     17 H4        -19.1314   14.1821   -7.0801 H           1 Z70       0.0359
     18 H5        -19.2674   16.0331   -5.5152 H           1 Z70       0.0424
     19 H6        -19.7601   16.5498   -7.1596 H           1 Z70       0.0424
     20 H7        -20.7137   13.0138   -3.6852 H           1 Z70       0.2010
     21 H8        -20.7922   14.6388   -4.0471 H           1 Z70       0.2010
     22 H9        -19.3328   13.8167   -4.1977 H           1 Z70       0.2010
     23 H10       -22.8270   15.1815   -5.8927 H           1 Z70       0.2341
     24 H11       -25.1412   17.6775   -4.4897 H           1 Z70       0.1788
     25 H12       -25.1307   16.1073   -5.0961 H           1 Z70       0.1788
@<TRIPOS>BOND
     1     1     2   1
     2     6     1   1
     3     1     8   1
     4     2    12  ar
     5     2    13  ar
     6     3     5   2
     7     7     3   1
     8     3     9   1
     9     9     4   1
    10     4    10   2
    11     4    11   1
    12     5    10   1
    13     6     7   1
    14     1    14   1
    15     5    15   1
    16     6    16   1
    17     6    17   1
    18     7    18   1
    19     7    19   1
    20     8    20   1
    21     8    21   1
    22     8    22   1
    23     9    23   1
    24    11    24   1
    25    11    25   1
@<TRIPOS>SUBSTRUCTURE
     1  Z70      1

