@<TRIPOS>MOLECULE
3mfv_ligand_031
    25    25
SMALL
GAST_HUCK
****
This file was generated by PARSER (from files_GN.cpp)

@<TRIPOS>ATOM
      1 CA        -17.7093   14.7237   -6.3892 C.3         1 Z70       0.0300
      2 C         -17.4928   15.2107   -7.7657 C.2         1 Z70       0.0846
      3 C3        -19.7253   12.3141   -5.5763 C.2         1 Z70       0.0382
      4 C4        -19.9424   10.1476   -5.6956 C.2         1 Z70       0.1941
      5 C5        -19.7108   11.9098   -6.9118 C.2         1 Z70      -0.0516
      6 C6        -19.2081   14.8134   -5.9541 C.3         1 Z70       0.0122
      7 C7        -19.6514   13.6760   -4.9912 C.3         1 Z70       0.0023
      8 N         -16.8503   15.4931   -5.4760 N.4         1 Z70       0.2328
      9 N2        -19.8738   11.1929   -4.8574 N.pl3       1 Z70      -0.2452
     10 N3        -19.8580   10.5756   -6.9627 N.2         1 Z70      -0.3473
     11 N4        -20.0793    8.8657   -5.3230 N.pl3       1 Z70      -0.3004
     12 OXT       -17.8737   16.4602   -8.1222 O.co2       1 Z70      -0.5643
     13 O         -16.9386   14.4076   -8.7045 O.co2       1 Z70      -0.5643
     14 H1        -17.3652   13.6871   -6.3459 H           1 Z70       0.1026
     15 H2        -19.6364   12.5133   -7.7325 H           1 Z70       0.0251
     16 H3        -19.8647   14.7847   -6.8264 H           1 Z70       0.0359
     17 H4        -19.3876   15.7765   -5.4673 H           1 Z70       0.0359
     18 H5        -18.9607   13.6504   -4.1428 H           1 Z70       0.0424
     19 H6        -20.6448   13.9156   -4.6001 H           1 Z70       0.0424
     20 H7        -15.8719   15.3657   -5.7411 H           1 Z70       0.2010
     21 H8        -16.9828   15.1702   -4.5154 H           1 Z70       0.2010
     22 H9        -17.0886   16.4869   -5.5298 H           1 Z70       0.2010
     23 H10       -19.9660   11.1512   -3.8946 H           1 Z70       0.2341
     24 H11       -20.1517    8.1658   -5.9921 H           1 Z70       0.1788
     25 H12       -20.0620    8.6319   -4.3785 H           1 Z70       0.1788
@<TRIPOS>BOND
     1     1     2   1
     2     6     1   1
     3     1     8   1
     4     2    12  ar
     5     2    13  ar
     6     3     5   2
     7     7     3   1
     8     3     9   1
     9     9     4   1
    10     4    10   2
    11     4    11   1
    12     5    10   1
    13     6     7   1
    14     1    14   1
    15     5    15   1
    16     6    16   1
    17     6    17   1
    18     7    18   1
    19     7    19   1
    20     8    20   1
    21     8    21   1
    22     8    22   1
    23     9    23   1
    24    11    24   1
    25    11    25   1
@<TRIPOS>SUBSTRUCTURE
     1  Z70      1

