@<TRIPOS>MOLECULE
3mfv_ligand_026
    25    25
SMALL
GAST_HUCK
****
This file was generated by PARSER (from files_GN.cpp)

@<TRIPOS>ATOM
      1 CA        -18.6532   16.2197   -3.4600 C.3         1 Z70       0.0300
      2 C         -19.4117   14.9631   -3.2647 C.2         1 Z70       0.0846
      3 C3        -16.3757   15.4026   -6.5647 C.2         1 Z70       0.0382
      4 C4        -15.5740   15.0154   -8.5491 C.2         1 Z70       0.1941
      5 C5        -15.5401   16.4487   -6.9423 C.2         1 Z70      -0.0516
      6 C6        -18.0203   16.3596   -4.8764 C.3         1 Z70       0.0122
      7 C7        -17.0272   15.2237   -5.2557 C.3         1 Z70       0.0023
      8 N         -17.6323   16.4161   -2.4122 N.4         1 Z70       0.2328
      9 N2        -16.3681   14.5292   -7.5844 N.pl3       1 Z70      -0.2452
     10 N3        -15.0533   16.1938   -8.1618 N.2         1 Z70      -0.3473
     11 N4        -15.3032   14.4030   -9.7107 N.pl3       1 Z70      -0.3004
     12 OXT       -20.3741   14.6431   -4.1575 O.co2       1 Z70      -0.5643
     13 O         -19.4118   14.3206   -2.0706 O.co2       1 Z70      -0.5643
     14 H1        -19.3743   17.0269   -3.3341 H           1 Z70       0.1026
     15 H2        -15.2985   17.2629   -6.3722 H           1 Z70       0.0251
     16 H3        -17.5104   17.3278   -4.9062 H           1 Z70       0.0359
     17 H4        -18.8209   16.3977   -5.6216 H           1 Z70       0.0359
     18 H5        -16.2336   15.1545   -4.5129 H           1 Z70       0.0424
     19 H6        -17.5641   14.2735   -5.2530 H           1 Z70       0.0424
     20 H7        -18.0994   16.4202   -1.5068 H           1 Z70       0.2010
     21 H8        -17.1556   17.3111   -2.5408 H           1 Z70       0.2010
     22 H9        -16.9425   15.6642   -2.4215 H           1 Z70       0.2010
     23 H10       -16.8377   13.6796   -7.6108 H           1 Z70       0.2341
     24 H11       -14.6877   14.8097  -10.3415 H           1 Z70       0.1788
     25 H12       -15.6894   13.5323   -9.9010 H           1 Z70       0.1788
@<TRIPOS>BOND
     1     1     2   1
     2     6     1   1
     3     1     8   1
     4     2    12  ar
     5     2    13  ar
     6     3     5   2
     7     7     3   1
     8     3     9   1
     9     9     4   1
    10     4    10   2
    11     4    11   1
    12     5    10   1
    13     6     7   1
    14     1    14   1
    15     5    15   1
    16     6    16   1
    17     6    17   1
    18     7    18   1
    19     7    19   1
    20     8    20   1
    21     8    21   1
    22     8    22   1
    23     9    23   1
    24    11    24   1
    25    11    25   1
@<TRIPOS>SUBSTRUCTURE
     1  Z70      1

