@<TRIPOS>MOLECULE
3mfv_ligand_028
    25    25
SMALL
GAST_HUCK
****
This file was generated by PARSER (from files_GN.cpp)

@<TRIPOS>ATOM
      1 CA        -19.3619   13.9004   -5.8719 C.3         1 Z70       0.0300
      2 C         -18.7899   12.5920   -6.2527 C.2         1 Z70       0.0846
      3 C3        -19.3724   15.7077   -3.2362 C.2         1 Z70       0.0382
      4 C4        -17.4473   16.6159   -2.7721 C.2         1 Z70       0.1941
      5 C5        -18.9899   15.3564   -1.9422 C.2         1 Z70      -0.0516
      6 C6        -20.3367   13.8579   -4.6504 C.3         1 Z70       0.0122
      7 C7        -20.5684   15.2334   -3.9669 C.3         1 Z70       0.0023
      8 N         -20.0374   14.4612   -7.0532 N.4         1 Z70       0.2328
      9 N2        -18.3991   16.4928   -3.7111 N.pl3       1 Z70      -0.2452
     10 N3        -17.8183   15.9476   -1.6650 N.2         1 Z70      -0.3473
     11 N4        -16.3068   17.3006   -2.9186 N.pl3       1 Z70      -0.3004
     12 OXT       -19.2249   11.4203   -5.7275 O.co2       1 Z70      -0.5643
     13 O         -17.7314   12.5523   -7.0894 O.co2       1 Z70      -0.5643
     14 H1        -18.5173   14.5489   -5.6368 H           1 Z70       0.1026
     15 H2        -19.5135   14.7592   -1.3003 H           1 Z70       0.0251
     16 H3        -19.9630   13.1659   -3.8872 H           1 Z70       0.0359
     17 H4        -21.3023   13.4779   -4.9812 H           1 Z70       0.0359
     18 H5        -20.8529   15.9786   -4.7155 H           1 Z70       0.0424
     19 H6        -21.3977   15.1553   -3.2597 H           1 Z70       0.0424
     20 H7        -19.3666   14.5900   -7.8055 H           1 Z70       0.2010
     21 H8        -20.4491   15.3662   -6.8168 H           1 Z70       0.2010
     22 H9        -20.7810   13.8291   -7.3689 H           1 Z70       0.2010
     23 H10       -18.3637   16.8682   -4.6063 H           1 Z70       0.2341
     24 H11       -15.6653   17.3334   -2.1958 H           1 Z70       0.1788
     25 H12       -16.1105   17.7386   -3.7601 H           1 Z70       0.1788
@<TRIPOS>BOND
     1     1     2   1
     2     6     1   1
     3     1     8   1
     4     2    12  ar
     5     2    13  ar
     6     3     5   2
     7     7     3   1
     8     3     9   1
     9     9     4   1
    10     4    10   2
    11     4    11   1
    12     5    10   1
    13     6     7   1
    14     1    14   1
    15     5    15   1
    16     6    16   1
    17     6    17   1
    18     7    18   1
    19     7    19   1
    20     8    20   1
    21     8    21   1
    22     8    22   1
    23     9    23   1
    24    11    24   1
    25    11    25   1
@<TRIPOS>SUBSTRUCTURE
     1  Z70      1

