@<TRIPOS>MOLECULE
3mfv_ligand_011
    25    25
SMALL
GAST_HUCK
****
This file was generated by PARSER (from files_GN.cpp)

@<TRIPOS>ATOM
      1 CA        -15.9529   14.7663   -7.8501 C.3         1 Z70       0.0300
      2 C         -17.2495   14.0923   -8.0924 C.2         1 Z70       0.0846
      3 C3        -14.7331   17.6479   -7.7014 C.2         1 Z70       0.0382
      4 C4        -15.0602   18.6473   -5.7998 C.2         1 Z70       0.1941
      5 C5        -15.5673   18.7456   -7.8923 C.2         1 Z70      -0.0516
      6 C6        -15.4492   15.6396   -9.0453 C.3         1 Z70       0.0122
      7 C7        -14.3143   16.6440   -8.6978 C.3         1 Z70       0.0023
      8 N         -14.9496   13.7418   -7.5050 N.4         1 Z70       0.2328
      9 N2        -14.4323   17.6289   -6.3995 N.pl3       1 Z70      -0.2452
     10 N3        -15.7643   19.3462   -6.7070 N.2         1 Z70      -0.3473
     11 N4        -15.0274   18.8686   -4.4774 N.pl3       1 Z70      -0.3004
     12 OXT       -17.7081   13.2008   -7.1857 O.co2       1 Z70      -0.5643
     13 O         -18.1696   14.6121   -8.9474 O.co2       1 Z70      -0.5643
     14 H1        -16.0854   15.4031   -6.9729 H           1 Z70       0.1026
     15 H2        -15.9857   19.0379   -8.7769 H           1 Z70       0.0251
     16 H3        -16.2848   16.2112   -9.4607 H           1 Z70       0.0359
     17 H4        -15.0914   14.9771   -9.8416 H           1 Z70       0.0359
     18 H5        -13.4415   16.0991   -8.3290 H           1 Z70       0.0424
     19 H6        -14.0117   17.1708   -9.6077 H           1 Z70       0.0424
     20 H7        -15.3113   13.1267   -6.7704 H           1 Z70       0.2010
     21 H8        -14.1094   14.1996   -7.1512 H           1 Z70       0.2010
     22 H9        -14.7159   13.1817   -8.3297 H           1 Z70       0.2010
     23 H10       -13.9143   16.9467   -5.9452 H           1 Z70       0.2341
     24 H11       -15.6017   19.5433   -4.0830 H           1 Z70       0.1788
     25 H12       -14.5184   18.2640   -3.9102 H           1 Z70       0.1788
@<TRIPOS>BOND
     1     1     2   1
     2     6     1   1
     3     1     8   1
     4     2    12  ar
     5     2    13  ar
     6     3     5   2
     7     7     3   1
     8     3     9   1
     9     9     4   1
    10     4    10   2
    11     4    11   1
    12     5    10   1
    13     6     7   1
    14     1    14   1
    15     5    15   1
    16     6    16   1
    17     6    17   1
    18     7    18   1
    19     7    19   1
    20     8    20   1
    21     8    21   1
    22     8    22   1
    23     9    23   1
    24    11    24   1
    25    11    25   1
@<TRIPOS>SUBSTRUCTURE
     1  Z70      1

