@<TRIPOS>MOLECULE
3mfv_ligand_013
    25    25
SMALL
GAST_HUCK
****
This file was generated by PARSER (from files_GN.cpp)

@<TRIPOS>ATOM
      1 CA        -18.8461   15.5392   -7.7934 C.3         1 Z70       0.0300
      2 C         -19.8322   15.5831   -8.9033 C.2         1 Z70       0.0846
      3 C3        -19.6478   11.8449   -6.7530 C.2         1 Z70       0.0382
      4 C4        -19.4725    9.6903   -6.5314 C.2         1 Z70       0.1941
      5 C5        -19.4168   11.5325   -5.4149 C.2         1 Z70      -0.0516
      6 C6        -18.6607   14.1240   -7.1593 C.3         1 Z70       0.0122
      7 C7        -19.8816   13.1788   -7.3383 C.3         1 Z70       0.0023
      8 N         -19.1717   16.5427   -6.7621 N.4         1 Z70       0.2328
      9 N2        -19.6865   10.6779   -7.4129 N.pl3       1 Z70      -0.2452
     10 N3        -19.2814   10.2043   -5.3022 N.2         1 Z70      -0.3473
     11 N4        -19.4582    8.3813   -6.8436 N.pl3       1 Z70      -0.3004
     12 OXT       -21.0966   16.0216   -8.7232 O.co2       1 Z70      -0.5643
     13 O         -19.4887   15.0654  -10.1157 O.co2       1 Z70      -0.5643
     14 H1        -17.8936   15.8505   -8.2004 H           1 Z70       0.1026
     15 H2        -19.3417   12.2025   -4.6505 H           1 Z70       0.0251
     16 H3        -18.4219   14.2421   -6.0889 H           1 Z70       0.0359
     17 H4        -17.7812   13.6502   -7.6210 H           1 Z70       0.0359
     18 H5        -20.7748   13.6186   -6.8781 H           1 Z70       0.0424
     19 H6        -20.0671   13.0653   -8.4101 H           1 Z70       0.0424
     20 H7        -19.2466   17.4594   -7.1975 H           1 Z70       0.2010
     21 H8        -18.4275   16.5725   -6.0651 H           1 Z70       0.2010
     22 H9        -20.0548   16.3176   -6.3035 H           1 Z70       0.2010
     23 H10       -19.8287   10.5616   -8.3670 H           1 Z70       0.2341
     24 H11       -19.3138    7.7108   -6.1529 H           1 Z70       0.1788
     25 H12       -19.6115    8.1054   -7.7612 H           1 Z70       0.1788
@<TRIPOS>BOND
     1     1     2   1
     2     6     1   1
     3     1     8   1
     4     2    12  ar
     5     2    13  ar
     6     3     5   2
     7     7     3   1
     8     3     9   1
     9     9     4   1
    10     4    10   2
    11     4    11   1
    12     5    10   1
    13     6     7   1
    14     1    14   1
    15     5    15   1
    16     6    16   1
    17     6    17   1
    18     7    18   1
    19     7    19   1
    20     8    20   1
    21     8    21   1
    22     8    22   1
    23     9    23   1
    24    11    24   1
    25    11    25   1
@<TRIPOS>SUBSTRUCTURE
     1  Z70      1

