@<TRIPOS>MOLECULE
3mfv_ligand_032
    25    25
SMALL
GAST_HUCK
****
This file was generated by PARSER (from files_GN.cpp)

@<TRIPOS>ATOM
      1 CA        -19.5586   11.0900   -5.7769 C.3         1 Z70       0.0300
      2 C         -20.0893   10.3029   -4.6587 C.2         1 Z70       0.0846
      3 C3        -18.6501   14.0288   -6.4837 C.2         1 Z70       0.0382
      4 C4        -17.3778   15.2727   -5.2247 C.2         1 Z70       0.1941
      5 C5        -17.3338   13.9599   -6.9350 C.2         1 Z70      -0.0516
      6 C6        -20.4784   12.2972   -6.1309 C.3         1 Z70       0.0122
      7 C7        -19.8375   13.3628   -7.0559 C.3         1 Z70       0.0023
      8 N         -19.3806   10.2128   -6.9441 N.4         1 Z70       0.2328
      9 N2        -18.6360   14.8553   -5.4257 N.pl3       1 Z70      -0.2452
     10 N3        -16.5643   14.7284   -6.1440 N.2         1 Z70      -0.3473
     11 N4        -16.9880   16.1187   -4.2613 N.pl3       1 Z70      -0.3004
     12 OXT       -20.8672    9.2185   -4.8912 O.co2       1 Z70      -0.5643
     13 O         -19.7892   10.6394   -3.3754 O.co2       1 Z70      -0.5643
     14 H1        -18.5737   11.4624   -5.4978 H           1 Z70       0.1026
     15 H2        -16.9981   13.4111   -7.7285 H           1 Z70       0.0251
     16 H3        -20.8274   12.7876   -5.2188 H           1 Z70       0.0359
     17 H4        -21.3638   11.9016   -6.6291 H           1 Z70       0.0359
     18 H5        -19.5682   12.9013   -8.0109 H           1 Z70       0.0424
     19 H6        -20.5770   14.1393   -7.2743 H           1 Z70       0.0424
     20 H7        -18.7476    9.4424   -6.7062 H           1 Z70       0.2010
     21 H8        -18.9918   10.7448   -7.7193 H           1 Z70       0.2010
     22 H9        -20.2910    9.8373   -7.2173 H           1 Z70       0.2010
     23 H10       -19.4084   15.1113   -4.8999 H           1 Z70       0.2341
     24 H11       -16.0560   16.3756   -4.1862 H           1 Z70       0.1788
     25 H12       -17.6397   16.4805   -3.6406 H           1 Z70       0.1788
@<TRIPOS>BOND
     1     1     2   1
     2     6     1   1
     3     1     8   1
     4     2    12  ar
     5     2    13  ar
     6     3     5   2
     7     7     3   1
     8     3     9   1
     9     9     4   1
    10     4    10   2
    11     4    11   1
    12     5    10   1
    13     6     7   1
    14     1    14   1
    15     5    15   1
    16     6    16   1
    17     6    17   1
    18     7    18   1
    19     7    19   1
    20     8    20   1
    21     8    21   1
    22     8    22   1
    23     9    23   1
    24    11    24   1
    25    11    25   1
@<TRIPOS>SUBSTRUCTURE
     1  Z70      1

