@<TRIPOS>MOLECULE
3mfv_ligand_036
    25    25
SMALL
GAST_HUCK
****
This file was generated by PARSER (from files_GN.cpp)

@<TRIPOS>ATOM
      1 CA        -19.4655   14.9981   -3.2137 C.3         1 Z70       0.0300
      2 C         -19.5343   14.6826   -1.7707 C.2         1 Z70       0.0846
      3 C3        -18.5697   17.1990   -5.2703 C.2         1 Z70       0.0382
      4 C4        -16.6849   18.2825   -5.3674 C.2         1 Z70       0.1941
      5 C5        -17.5987   16.3870   -5.8549 C.2         1 Z70      -0.0516
      6 C6        -20.2450   16.2954   -3.5822 C.3         1 Z70       0.0122
      7 C7        -19.9900   16.8801   -5.0045 C.3         1 Z70       0.0023
      8 N         -19.8998   13.8568   -4.0352 N.4         1 Z70       0.2328
      9 N2        -17.9716   18.3687   -4.9929 N.pl3       1 Z70      -0.2452
     10 N3        -16.4445   17.0727   -5.9050 N.2         1 Z70      -0.3473
     11 N4        -15.7826   19.2689   -5.2420 N.pl3       1 Z70      -0.3004
     12 OXT       -18.4196   14.2962   -1.1095 O.co2       1 Z70      -0.5643
     13 O         -20.6723   14.8329   -1.0515 O.co2       1 Z70      -0.5643
     14 H1        -18.4142   15.1604   -3.4587 H           1 Z70       0.1026
     15 H2        -17.7260   15.4295   -6.1879 H           1 Z70       0.0251
     16 H3        -20.0197   17.0598   -2.8333 H           1 Z70       0.0359
     17 H4        -21.3150   16.0872   -3.4958 H           1 Z70       0.0359
     18 H5        -20.3571   16.1844   -5.7659 H           1 Z70       0.0424
     19 H6        -20.5595   17.8069   -5.1048 H           1 Z70       0.0424
     20 H7        -19.2831   13.0590   -3.8706 H           1 Z70       0.2010
     21 H8        -19.8619   14.1135   -5.0230 H           1 Z70       0.2010
     22 H9        -20.8557   13.5915   -3.7926 H           1 Z70       0.2010
     23 H10       -18.3962   19.1417   -4.5867 H           1 Z70       0.2341
     24 H11       -14.8726   19.1309   -5.5467 H           1 Z70       0.1788
     25 H12       -16.0422   20.1195   -4.8527 H           1 Z70       0.1788
@<TRIPOS>BOND
     1     1     2   1
     2     6     1   1
     3     1     8   1
     4     2    12  ar
     5     2    13  ar
     6     3     5   2
     7     7     3   1
     8     3     9   1
     9     9     4   1
    10     4    10   2
    11     4    11   1
    12     5    10   1
    13     6     7   1
    14     1    14   1
    15     5    15   1
    16     6    16   1
    17     6    17   1
    18     7    18   1
    19     7    19   1
    20     8    20   1
    21     8    21   1
    22     8    22   1
    23     9    23   1
    24    11    24   1
    25    11    25   1
@<TRIPOS>SUBSTRUCTURE
     1  Z70      1

