@<TRIPOS>MOLECULE
3mfv_ligand_030
    25    25
SMALL
GAST_HUCK
****
This file was generated by PARSER (from files_GN.cpp)

@<TRIPOS>ATOM
      1 CA        -19.0863   15.6367   -3.5261 C.3         1 Z70       0.0300
      2 C         -18.5147   15.4423   -2.1685 C.2         1 Z70       0.0846
      3 C3        -16.5497   16.7992   -5.3191 C.2         1 Z70       0.0382
      4 C4        -15.8443   18.8473   -5.5354 C.2         1 Z70       0.1941
      5 C5        -16.8688   17.2693   -6.5911 C.2         1 Z70      -0.0516
      6 C6        -18.2251   14.9831   -4.6449 C.3         1 Z70       0.0122
      7 C7        -16.7442   15.4353   -4.7904 C.3         1 Z70       0.0023
      8 N         -19.3483   17.0588   -3.8035 N.4         1 Z70       0.2328
      9 N2        -15.9205   17.8035   -4.6965 N.pl3       1 Z70      -0.2452
     10 N3        -16.4254   18.5319   -6.7034 N.2         1 Z70      -0.3473
     11 N4        -15.2506   20.0160   -5.2545 N.pl3       1 Z70      -0.3004
     12 OXT       -18.9616   14.4490   -1.3655 O.co2       1 Z70      -0.5643
     13 O         -17.7525   16.3981   -1.5902 O.co2       1 Z70      -0.5643
     14 H1        -20.0641   15.1446   -3.5552 H           1 Z70       0.1026
     15 H2        -17.3312   16.7429   -7.3319 H           1 Z70       0.0251
     16 H3        -18.7323   15.1268   -5.6019 H           1 Z70       0.0359
     17 H4        -18.2317   13.9048   -4.4606 H           1 Z70       0.0359
     18 H5        -16.2304   15.3368   -3.8281 H           1 Z70       0.0424
     19 H6        -16.2424   14.7525   -5.4819 H           1 Z70       0.0424
     20 H7        -20.0148   17.4290   -3.1224 H           1 Z70       0.2010
     21 H8        -19.7447   17.1554   -4.7421 H           1 Z70       0.2010
     22 H9        -18.4812   17.5964   -3.7462 H           1 Z70       0.2010
     23 H10       -15.5450   17.7690   -3.8031 H           1 Z70       0.2341
     24 H11       -15.2266   20.7232   -5.9167 H           1 Z70       0.1788
     25 H12       -14.8398   20.1524   -4.3875 H           1 Z70       0.1788
@<TRIPOS>BOND
     1     1     2   1
     2     6     1   1
     3     1     8   1
     4     2    12  ar
     5     2    13  ar
     6     3     5   2
     7     7     3   1
     8     3     9   1
     9     9     4   1
    10     4    10   2
    11     4    11   1
    12     5    10   1
    13     6     7   1
    14     1    14   1
    15     5    15   1
    16     6    16   1
    17     6    17   1
    18     7    18   1
    19     7    19   1
    20     8    20   1
    21     8    21   1
    22     8    22   1
    23     9    23   1
    24    11    24   1
    25    11    25   1
@<TRIPOS>SUBSTRUCTURE
     1  Z70      1

