@<TRIPOS>MOLECULE
3mss_ligand_010
    42    43
SMALL
GAST_HUCK
****
This file was generated by PARSER (from files_GN.cpp)

@<TRIPOS>ATOM
      1 N1         -6.1352  -11.3551  -33.0066 N.4         1 MS7       0.2392
      2 C4         -6.5082  -11.0031  -31.6235 C.3         1 MS7       0.0728
      3 C6         -5.2725  -10.7812  -30.6944 C.3         1 MS7       0.0365
      4 C9         -4.2757   -9.7457  -31.1106 C.ar        1 MS7      -0.0460
      5 C10        -4.0197   -8.6185  -30.2960 C.ar        1 MS7      -0.0684
      6 C12        -3.0173   -7.6938  -30.6389 C.ar        1 MS7      -0.0393
      7 C14        -2.2582   -7.8553  -31.8167 C.ar        1 MS7       0.0868
      8 C15        -2.4979   -8.9810  -32.6284 C.ar        1 MS7      -0.0393
      9 C17        -3.4764   -9.9231  -32.2679 C.ar        1 MS7      -0.0684
     10 O19        -1.2031   -7.0401  -32.1405 O.3         1 MS7      -0.3099
     11 C20        -1.4849   -5.6594  -32.4478 C.3         1 MS7       0.1028
     12 C23        -1.5268   -4.8021  -31.2349 C.ar        1 MS7      -0.0131
     13 C24        -2.6459   -3.9863  -30.9483 C.ar        1 MS7      -0.0578
     14 C26        -2.6568   -3.1605  -29.8074 C.ar        1 MS7      -0.0685
     15 C28        -1.5460   -3.1369  -28.9446 C.ar        1 MS7      -0.0687
     16 C30        -0.4303   -3.9517  -29.2116 C.ar        1 MS7      -0.0685
     17 C32        -0.4209   -4.7795  -30.3504 C.ar        1 MS7      -0.0578
     18 C34        -7.4393   -9.8823  -31.6172 C.2         1 MS7       0.2261
     19 O35        -8.4796   -9.9942  -30.9808 O.2         1 MS7      -0.3907
     20 N36        -7.1935   -8.7779  -32.3216 N.am        1 MS7      -0.2853
     21 C38        -8.0768   -7.6630  -32.4389 C.3         1 MS7       0.0197
     22 H1         -5.4411  -12.1060  -33.0061 H           1 MS7       0.2017
     23 H2         -5.7404  -10.5311  -33.4581 H           1 MS7       0.2017
     24 H3         -6.9597  -11.6569  -33.5341 H           1 MS7       0.2017
     25 H4         -7.0233  -11.8893  -31.2344 H           1 MS7       0.1120
     26 H5         -4.7359  -11.7291  -30.6086 H           1 MS7       0.0486
     27 H6         -5.6556  -10.5648  -29.6875 H           1 MS7       0.0486
     28 H7         -4.5231   -8.4812  -29.4176 H           1 MS7       0.0530
     29 H8         -2.8245   -6.9204  -30.0005 H           1 MS7       0.0525
     30 H9         -1.9400   -9.1383  -33.4688 H           1 MS7       0.0525
     31 H10        -3.5686  -10.7597  -32.8461 H           1 MS7       0.0530
     32 H11        -2.3957   -5.5679  -33.0495 H           1 MS7       0.0776
     33 H12        -0.6628   -5.2967  -33.0684 H           1 MS7       0.0776
     34 H13        -3.4630   -3.9919  -31.5631 H           1 MS7       0.0557
     35 H14        -3.4692   -2.5735  -29.6090 H           1 MS7       0.0599
     36 H15        -1.5496   -2.5275  -28.1247 H           1 MS7       0.0559
     37 H16         0.3762   -3.9350  -28.5861 H           1 MS7       0.0599
     38 H17         0.3972   -5.3687  -30.5302 H           1 MS7       0.0557
     39 H18        -6.3717   -8.7391  -32.8333 H           1 MS7       0.1849
     40 H19        -7.6423   -6.9260  -33.1163 H           1 MS7       0.0484
     41 H20        -8.2283   -7.1962  -31.4654 H           1 MS7       0.0484
     42 H21        -9.0394   -7.9778  -32.8462 H           1 MS7       0.0484
@<TRIPOS>BOND
     1     1     2   1
     2     2     3   1
     3     2    18   1
     4     3     4   1
     5     4     5  ar
     6     4     9  ar
     7     5     6  ar
     8     6     7  ar
     9     7     8  ar
    10     7    10   1
    11     8     9  ar
    12    10    11   1
    13    11    12   1
    14    12    13  ar
    15    12    17  ar
    16    13    14  ar
    17    14    15  ar
    18    15    16  ar
    19    16    17  ar
    20    18    19   2
    21    18    20  am
    22    20    21   1
    23     1    22   1
    24     1    23   1
    25     1    24   1
    26     2    25   1
    27     3    26   1
    28     3    27   1
    29     5    28   1
    30     6    29   1
    31     8    30   1
    32     9    31   1
    33    11    32   1
    34    11    33   1
    35    13    34   1
    36    14    35   1
    37    15    36   1
    38    16    37   1
    39    17    38   1
    40    20    39   1
    41    21    40   1
    42    21    41   1
    43    21    42   1
@<TRIPOS>SUBSTRUCTURE
     1  MS7      2

