@<TRIPOS>MOLECULE
3mss_ligand_029
    42    43
SMALL
GAST_HUCK
****
This file was generated by PARSER (from files_GN.cpp)

@<TRIPOS>ATOM
      1 N1         -9.5379   -2.9854  -27.6740 N.4         1 MS7       0.2392
      2 C4         -9.8749   -2.7918  -29.0993 C.3         1 MS7       0.0728
      3 C6         -9.5815   -4.0850  -29.9236 C.3         1 MS7       0.0365
      4 C9         -8.1583   -4.4685  -30.1919 C.ar        1 MS7      -0.0460
      5 C10        -7.0301   -3.7091  -29.7851 C.ar        1 MS7      -0.0684
      6 C12        -5.7295   -4.0826  -30.1601 C.ar        1 MS7      -0.0393
      7 C14        -5.5180   -5.2453  -30.9252 C.ar        1 MS7       0.0868
      8 C15        -6.6217   -6.0176  -31.3354 C.ar        1 MS7      -0.0393
      9 C17        -7.9240   -5.6346  -30.9652 C.ar        1 MS7      -0.0684
     10 O19        -4.2566   -5.5605  -31.3432 O.3         1 MS7      -0.3099
     11 C20        -3.4940   -6.4285  -30.4805 C.3         1 MS7       0.1028
     12 C23        -2.1989   -5.7605  -30.2042 C.ar        1 MS7      -0.0131
     13 C24        -1.0008   -6.1742  -30.8408 C.ar        1 MS7      -0.0578
     14 C26         0.2009   -5.4757  -30.6158 C.ar        1 MS7      -0.0685
     15 C28         0.2287   -4.3693  -29.7442 C.ar        1 MS7      -0.0687
     16 C30        -0.9520   -3.9639  -29.0929 C.ar        1 MS7      -0.0685
     17 C32        -2.1551   -4.6550  -29.3201 C.ar        1 MS7      -0.0578
     18 C34       -11.2709   -2.3669  -29.2058 C.2         1 MS7       0.2261
     19 O35       -12.1615   -3.1123  -28.8032 O.2         1 MS7      -0.3907
     20 N36       -11.5584   -1.1863  -29.7476 N.am        1 MS7      -0.2853
     21 C38       -12.8703   -0.6418  -29.8949 C.3         1 MS7       0.0197
     22 H1         -8.5838   -3.3431  -27.5819 H           1 MS7       0.2017
     23 H2        -10.1884   -3.6584  -27.2540 H           1 MS7       0.2017
     24 H3         -9.6141   -2.0919  -27.1788 H           1 MS7       0.2017
     25 H4         -9.2382   -1.9859  -29.4867 H           1 MS7       0.1120
     26 H5        -10.0527   -3.9665  -30.9085 H           1 MS7       0.0486
     27 H6        -10.0751   -4.9258  -29.4234 H           1 MS7       0.0486
     28 H7         -7.1332   -2.8552  -29.2365 H           1 MS7       0.0530
     29 H8         -4.9408   -3.4921  -29.8932 H           1 MS7       0.0525
     30 H9         -6.4770   -6.8406  -31.9231 H           1 MS7       0.0525
     31 H10        -8.7111   -6.1989  -31.2927 H           1 MS7       0.0530
     32 H11        -3.3488   -7.3715  -31.0170 H           1 MS7       0.0776
     33 H12        -3.9862   -6.6710  -29.5315 H           1 MS7       0.0776
     34 H13        -1.0050   -6.9688  -31.4904 H           1 MS7       0.0557
     35 H14         1.0555   -5.7663  -31.0954 H           1 MS7       0.0599
     36 H15         1.1025   -3.8602  -29.5840 H           1 MS7       0.0559
     37 H16        -0.9357   -3.1604  -28.4589 H           1 MS7       0.0599
     38 H17        -2.9983   -4.3488  -28.8326 H           1 MS7       0.0557
     39 H18       -10.8145   -0.6336  -30.0471 H           1 MS7       0.1849
     40 H19       -12.7869    0.3502  -30.3415 H           1 MS7       0.0484
     41 H20       -13.3544   -0.5452  -28.9167 H           1 MS7       0.0484
     42 H21       -13.4775   -1.2773  -30.5405 H           1 MS7       0.0484
@<TRIPOS>BOND
     1     1     2   1
     2     2     3   1
     3     2    18   1
     4     3     4   1
     5     4     5  ar
     6     4     9  ar
     7     5     6  ar
     8     6     7  ar
     9     7     8  ar
    10     7    10   1
    11     8     9  ar
    12    10    11   1
    13    11    12   1
    14    12    13  ar
    15    12    17  ar
    16    13    14  ar
    17    14    15  ar
    18    15    16  ar
    19    16    17  ar
    20    18    19   2
    21    18    20  am
    22    20    21   1
    23     1    22   1
    24     1    23   1
    25     1    24   1
    26     2    25   1
    27     3    26   1
    28     3    27   1
    29     5    28   1
    30     6    29   1
    31     8    30   1
    32     9    31   1
    33    11    32   1
    34    11    33   1
    35    13    34   1
    36    14    35   1
    37    15    36   1
    38    16    37   1
    39    17    38   1
    40    20    39   1
    41    21    40   1
    42    21    41   1
    43    21    42   1
@<TRIPOS>SUBSTRUCTURE
     1  MS7      2

