@<TRIPOS>MOLECULE
3mss_ligand_009
    42    43
SMALL
GAST_HUCK
****
This file was generated by PARSER (from files_GN.cpp)

@<TRIPOS>ATOM
      1 N1         -1.6813  -12.4453  -32.1831 N.4         1 MS7       0.2392
      2 C4         -3.0085  -12.3591  -31.5444 C.3         1 MS7       0.0728
      3 C6         -3.8582  -11.1483  -32.0446 C.3         1 MS7       0.0365
      4 C9         -3.1292   -9.8527  -32.0139 C.ar        1 MS7      -0.0460
      5 C10        -2.2108   -9.5430  -33.0430 C.ar        1 MS7      -0.0684
      6 C12        -1.4643   -8.3551  -33.0034 C.ar        1 MS7      -0.0393
      7 C14        -1.6159   -7.4424  -31.9436 C.ar        1 MS7       0.0868
      8 C15        -2.5761   -7.7177  -30.9416 C.ar        1 MS7      -0.0393
      9 C17        -3.3191   -8.9151  -30.9729 C.ar        1 MS7      -0.0684
     10 O19        -0.8183   -6.3250  -31.9967 O.3         1 MS7      -0.3099
     11 C20        -0.3403   -5.7129  -30.7808 C.3         1 MS7       0.1028
     12 C23        -1.1438   -4.5397  -30.3415 C.ar        1 MS7      -0.0131
     13 C24        -0.7901   -3.8726  -29.1445 C.ar        1 MS7      -0.0578
     14 C26        -1.4943   -2.7313  -28.7205 C.ar        1 MS7      -0.0685
     15 C28        -2.5635   -2.2374  -29.4858 C.ar        1 MS7      -0.0687
     16 C30        -2.9421   -2.8953  -30.6671 C.ar        1 MS7      -0.0685
     17 C32        -2.2338   -4.0339  -31.0947 C.ar        1 MS7      -0.0578
     18 C34        -3.7011  -13.6241  -31.7583 C.2         1 MS7       0.2261
     19 O35        -3.9961  -14.3160  -30.7912 O.2         1 MS7      -0.3907
     20 N36        -3.9921  -14.0199  -32.9919 N.am        1 MS7      -0.2853
     21 C38        -4.6603  -15.2290  -33.3407 C.3         1 MS7       0.0197
     22 H1         -1.1098  -11.6368  -31.9260 H           1 MS7       0.2017
     23 H2         -1.7875  -12.4668  -33.1999 H           1 MS7       0.2017
     24 H3         -1.2023  -13.2952  -31.8725 H           1 MS7       0.2017
     25 H4         -2.8257  -12.2165  -30.4741 H           1 MS7       0.1120
     26 H5         -4.7550  -11.0786  -31.4220 H           1 MS7       0.0486
     27 H6         -4.2048  -11.3252  -33.0669 H           1 MS7       0.0486
     28 H7         -2.0651  -10.1915  -33.8193 H           1 MS7       0.0530
     29 H8         -0.8016   -8.1616  -33.7539 H           1 MS7       0.0525
     30 H9         -2.7295   -7.0569  -30.1780 H           1 MS7       0.0525
     31 H10        -3.9858   -9.1067  -30.2216 H           1 MS7       0.0530
     32 H11         0.6693   -5.3599  -30.9936 H           1 MS7       0.0776
     33 H12        -0.2516   -6.4427  -29.9705 H           1 MS7       0.0776
     34 H13        -0.0150   -4.2108  -28.5707 H           1 MS7       0.0557
     35 H14        -1.2323   -2.2593  -27.8537 H           1 MS7       0.0599
     36 H15        -3.0649   -1.4020  -29.1800 H           1 MS7       0.0559
     37 H16        -3.7273   -2.5410  -31.2159 H           1 MS7       0.0599
     38 H17        -2.5205   -4.4827  -31.9663 H           1 MS7       0.0557
     39 H18        -3.7321  -13.4362  -33.7241 H           1 MS7       0.1849
     40 H19        -4.7794  -15.2679  -34.4238 H           1 MS7       0.0484
     41 H20        -5.6486  -15.2677  -32.8789 H           1 MS7       0.0484
     42 H21        -4.0744  -16.0919  -33.0200 H           1 MS7       0.0484
@<TRIPOS>BOND
     1     1     2   1
     2     2     3   1
     3     2    18   1
     4     3     4   1
     5     4     5  ar
     6     4     9  ar
     7     5     6  ar
     8     6     7  ar
     9     7     8  ar
    10     7    10   1
    11     8     9  ar
    12    10    11   1
    13    11    12   1
    14    12    13  ar
    15    12    17  ar
    16    13    14  ar
    17    14    15  ar
    18    15    16  ar
    19    16    17  ar
    20    18    19   2
    21    18    20  am
    22    20    21   1
    23     1    22   1
    24     1    23   1
    25     1    24   1
    26     2    25   1
    27     3    26   1
    28     3    27   1
    29     5    28   1
    30     6    29   1
    31     8    30   1
    32     9    31   1
    33    11    32   1
    34    11    33   1
    35    13    34   1
    36    14    35   1
    37    15    36   1
    38    16    37   1
    39    17    38   1
    40    20    39   1
    41    21    40   1
    42    21    41   1
    43    21    42   1
@<TRIPOS>SUBSTRUCTURE
     1  MS7      2

