@<TRIPOS>MOLECULE
3mss_ligand_027
    42    43
SMALL
GAST_HUCK
****
This file was generated by PARSER (from files_GN.cpp)

@<TRIPOS>ATOM
      1 N1         -9.6273   -0.9324  -25.5675 N.4         1 MS7       0.2392
      2 C4        -10.1053   -1.3561  -26.8928 C.3         1 MS7       0.0728
      3 C6         -9.6784   -2.8377  -27.1538 C.3         1 MS7       0.0365
      4 C9         -9.4541   -3.1994  -28.5834 C.ar        1 MS7      -0.0460
      5 C10       -10.5020   -3.1225  -29.5306 C.ar        1 MS7      -0.0684
      6 C12       -10.2959   -3.5124  -30.8676 C.ar        1 MS7      -0.0393
      7 C14        -9.0550   -4.0473  -31.2761 C.ar        1 MS7       0.0868
      8 C15        -7.9996   -4.0901  -30.3462 C.ar        1 MS7      -0.0393
      9 C17        -8.1951   -3.6782  -29.0169 C.ar        1 MS7      -0.0684
     10 O19        -8.8080   -4.4098  -32.5762 O.3         1 MS7      -0.3099
     11 C20        -9.5343   -5.5294  -33.1402 C.3         1 MS7       0.1028
     12 C23        -8.8442   -6.8492  -33.1312 C.ar        1 MS7      -0.0131
     13 C24        -9.3776   -7.8981  -33.9219 C.ar        1 MS7      -0.0578
     14 C26        -8.7656   -9.1648  -33.9571 C.ar        1 MS7      -0.0685
     15 C28        -7.6088   -9.4069  -33.1975 C.ar        1 MS7      -0.0687
     16 C30        -7.0657   -8.3784  -32.4053 C.ar        1 MS7      -0.0685
     17 C32        -7.6753   -7.1089  -32.3765 C.ar        1 MS7      -0.0578
     18 C34       -11.5432   -1.1048  -26.9345 C.2         1 MS7       0.2261
     19 O35       -12.3018   -1.9017  -26.3932 O.2         1 MS7      -0.3907
     20 N36       -12.0120    0.0228  -27.4544 N.am        1 MS7      -0.2853
     21 C38       -13.3728    0.4457  -27.4205 C.3         1 MS7       0.0197
     22 H1         -8.6167   -1.0748  -25.5113 H           1 MS7       0.2017
     23 H2        -10.0843   -1.4806  -24.8372 H           1 MS7       0.2017
     24 H3         -9.8350    0.0585  -25.4313 H           1 MS7       0.2017
     25 H4         -9.5937   -0.7201  -27.6193 H           1 MS7       0.1120
     26 H5        -10.4205   -3.5240  -26.7411 H           1 MS7       0.0486
     27 H6         -8.7576   -3.0169  -26.5929 H           1 MS7       0.0486
     28 H7        -11.4280   -2.7935  -29.2531 H           1 MS7       0.0530
     29 H8        -11.0632   -3.4169  -31.5374 H           1 MS7       0.0525
     30 H9         -7.0756   -4.4212  -30.6340 H           1 MS7       0.0525
     31 H10        -7.4111   -3.7426  -28.3621 H           1 MS7       0.0530
     32 H11        -9.6902   -5.2547  -34.1874 H           1 MS7       0.0776
     33 H12       -10.5234   -5.6522  -32.6869 H           1 MS7       0.0776
     34 H13       -10.2170   -7.7418  -34.4908 H           1 MS7       0.0557
     35 H14        -9.1600   -9.9095  -34.5393 H           1 MS7       0.0599
     36 H15        -7.1562  -10.3246  -33.2309 H           1 MS7       0.0559
     37 H16        -6.2188   -8.5537  -31.8551 H           1 MS7       0.0599
     38 H17        -7.2534   -6.3843  -31.8012 H           1 MS7       0.0557
     39 H18       -11.3762    0.6326  -27.8628 H           1 MS7       0.1849
     40 H19       -13.4434    1.4251  -27.8940 H           1 MS7       0.0484
     41 H20       -13.7196    0.5290  -26.3890 H           1 MS7       0.0484
     42 H21       -14.0063   -0.2553  -27.9635 H           1 MS7       0.0484
@<TRIPOS>BOND
     1     1     2   1
     2     2     3   1
     3     2    18   1
     4     3     4   1
     5     4     5  ar
     6     4     9  ar
     7     5     6  ar
     8     6     7  ar
     9     7     8  ar
    10     7    10   1
    11     8     9  ar
    12    10    11   1
    13    11    12   1
    14    12    13  ar
    15    12    17  ar
    16    13    14  ar
    17    14    15  ar
    18    15    16  ar
    19    16    17  ar
    20    18    19   2
    21    18    20  am
    22    20    21   1
    23     1    22   1
    24     1    23   1
    25     1    24   1
    26     2    25   1
    27     3    26   1
    28     3    27   1
    29     5    28   1
    30     6    29   1
    31     8    30   1
    32     9    31   1
    33    11    32   1
    34    11    33   1
    35    13    34   1
    36    14    35   1
    37    15    36   1
    38    16    37   1
    39    17    38   1
    40    20    39   1
    41    21    40   1
    42    21    41   1
    43    21    42   1
@<TRIPOS>SUBSTRUCTURE
     1  MS7      2

