@<TRIPOS>MOLECULE
3mss_ligand_028
    42    43
SMALL
GAST_HUCK
****
This file was generated by PARSER (from files_GN.cpp)

@<TRIPOS>ATOM
      1 N1         -9.6130   -0.9403  -25.3645 N.4         1 MS7       0.2392
      2 C4        -10.3063   -1.2036  -26.6372 C.3         1 MS7       0.0728
      3 C6        -10.2431   -2.7273  -26.9767 C.3         1 MS7       0.0365
      4 C9        -10.7574   -3.0928  -28.3307 C.ar        1 MS7      -0.0460
      5 C10       -12.1265   -2.9497  -28.6589 C.ar        1 MS7      -0.0684
      6 C12       -12.5902   -3.2209  -29.9573 C.ar        1 MS7      -0.0393
      7 C14       -11.7097   -3.7033  -30.9444 C.ar        1 MS7       0.0868
      8 C15       -10.3665   -3.9594  -30.5949 C.ar        1 MS7      -0.0393
      9 C17        -9.8861   -3.6100  -29.3216 C.ar        1 MS7      -0.0684
     10 O19       -12.2019   -3.8602  -32.2212 O.3         1 MS7      -0.3099
     11 C20       -11.4462   -3.2546  -33.3004 C.3         1 MS7       0.1028
     12 C23       -10.9803   -1.8630  -33.0256 C.ar        1 MS7      -0.0131
     13 C24        -9.6605   -1.6187  -32.5735 C.ar        1 MS7      -0.0578
     14 C26        -9.2643   -0.3275  -32.1840 C.ar        1 MS7      -0.0685
     15 C28       -10.1673    0.7456  -32.2920 C.ar        1 MS7      -0.0687
     16 C30       -11.4721    0.5209  -32.7681 C.ar        1 MS7      -0.0685
     17 C32       -11.8804   -0.7784  -33.1219 C.ar        1 MS7      -0.0578
     18 C34       -11.6560   -0.6675  -26.5283 C.2         1 MS7       0.2261
     19 O35       -12.4208   -1.1358  -25.6888 O.2         1 MS7      -0.3907
     20 N36       -12.0582    0.3012  -27.3451 N.am        1 MS7      -0.2853
     21 C38       -13.3709    0.8430  -27.4045 C.3         1 MS7       0.0197
     22 H1         -8.6336   -1.2168  -25.4495 H           1 MS7       0.2017
     23 H2        -10.0532   -1.4734  -24.6093 H           1 MS7       0.2017
     24 H3         -9.6663    0.0584  -25.1479 H           1 MS7       0.2017
     25 H4         -9.7483   -0.6631  -27.4068 H           1 MS7       0.1120
     26 H5        -10.7895   -3.3042  -26.2229 H           1 MS7       0.0486
     27 H6         -9.1965   -3.0334  -26.8992 H           1 MS7       0.0486
     28 H7        -12.7985   -2.6363  -27.9574 H           1 MS7       0.0530
     29 H8        -13.5703   -3.0456  -30.1885 H           1 MS7       0.0525
     30 H9         -9.7213   -4.3509  -31.2844 H           1 MS7       0.0525
     31 H10        -8.8907   -3.7355  -29.1238 H           1 MS7       0.0530
     32 H11       -12.0917   -3.2393  -34.1829 H           1 MS7       0.0776
     33 H12       -10.6076   -3.9110  -33.5493 H           1 MS7       0.0776
     34 H13        -8.9926   -2.3878  -32.4812 H           1 MS7       0.0557
     35 H14        -8.3266   -0.1714  -31.8140 H           1 MS7       0.0599
     36 H15        -9.8793    1.6882  -32.0117 H           1 MS7       0.0559
     37 H16       -12.1277    1.3018  -32.8432 H           1 MS7       0.0599
     38 H17       -12.8404   -0.9307  -33.4313 H           1 MS7       0.0557
     39 H18       -11.4053    0.6537  -27.9715 H           1 MS7       0.1849
     40 H19       -13.4024    1.5999  -28.1873 H           1 MS7       0.0484
     41 H20       -13.6358    1.3063  -26.4529 H           1 MS7       0.0484
     42 H21       -14.0924    0.0593  -27.6443 H           1 MS7       0.0484
@<TRIPOS>BOND
     1     1     2   1
     2     2     3   1
     3     2    18   1
     4     3     4   1
     5     4     5  ar
     6     4     9  ar
     7     5     6  ar
     8     6     7  ar
     9     7     8  ar
    10     7    10   1
    11     8     9  ar
    12    10    11   1
    13    11    12   1
    14    12    13  ar
    15    12    17  ar
    16    13    14  ar
    17    14    15  ar
    18    15    16  ar
    19    16    17  ar
    20    18    19   2
    21    18    20  am
    22    20    21   1
    23     1    22   1
    24     1    23   1
    25     1    24   1
    26     2    25   1
    27     3    26   1
    28     3    27   1
    29     5    28   1
    30     6    29   1
    31     8    30   1
    32     9    31   1
    33    11    32   1
    34    11    33   1
    35    13    34   1
    36    14    35   1
    37    15    36   1
    38    16    37   1
    39    17    38   1
    40    20    39   1
    41    21    40   1
    42    21    41   1
    43    21    42   1
@<TRIPOS>SUBSTRUCTURE
     1  MS7      2

