@<TRIPOS>MOLECULE
3mss_ligand_015
    42    43
SMALL
GAST_HUCK
****
This file was generated by PARSER (from files_GN.cpp)

@<TRIPOS>ATOM
      1 N1         -9.7578   -0.9589  -25.1659 N.4         1 MS7       0.2392
      2 C4        -10.3024   -0.9763  -26.5324 C.3         1 MS7       0.0728
      3 C6        -10.0888   -2.3748  -27.1984 C.3         1 MS7       0.0365
      4 C9        -10.3327   -2.4789  -28.6730 C.ar        1 MS7      -0.0460
      5 C10        -9.8409   -1.4995  -29.5776 C.ar        1 MS7      -0.0684
      6 C12        -9.9686   -1.6666  -30.9633 C.ar        1 MS7      -0.0393
      7 C14       -10.5407   -2.8413  -31.4936 C.ar        1 MS7       0.0868
      8 C15       -11.0394   -3.8190  -30.6114 C.ar        1 MS7      -0.0393
      9 C17       -10.9368   -3.6371  -29.2160 C.ar        1 MS7      -0.0684
     10 O19       -10.5549   -2.9953  -32.8566 O.3         1 MS7      -0.3099
     11 C20        -9.5630   -3.9264  -33.3390 C.3         1 MS7       0.1028
     12 C23        -9.2372   -3.6456  -34.7566 C.ar        1 MS7      -0.0131
     13 C24        -8.7770   -2.3572  -35.1231 C.ar        1 MS7      -0.0578
     14 C26        -8.3725   -2.0888  -36.4428 C.ar        1 MS7      -0.0685
     15 C28        -8.4160   -3.1066  -37.4141 C.ar        1 MS7      -0.0687
     16 C30        -8.8825   -4.3870  -37.0688 C.ar        1 MS7      -0.0685
     17 C32        -9.2963   -4.6536  -35.7477 C.ar        1 MS7      -0.0578
     18 C34       -11.7008   -0.5575  -26.5211 C.2         1 MS7       0.2261
     19 O35       -12.4758   -1.1028  -25.7549 O.2         1 MS7      -0.3907
     20 N36       -12.1122    0.3943  -27.3485 N.am        1 MS7      -0.2853
     21 C38       -13.4392    0.9211  -27.3963 C.3         1 MS7       0.0197
     22 H1         -8.7928   -1.2912  -25.1837 H           1 MS7       0.2017
     23 H2        -10.3132   -1.5558  -24.5461 H           1 MS7       0.2017
     24 H3         -9.7738    0.0039  -24.8209 H           1 MS7       0.2017
     25 H4         -9.6939   -0.2380  -27.0577 H           1 MS7       0.1120
     26 H5        -10.6976   -3.1108  -26.6587 H           1 MS7       0.0486
     27 H6         -9.0489   -2.6738  -27.0422 H           1 MS7       0.0486
     28 H7         -9.3634   -0.6641  -29.2370 H           1 MS7       0.0530
     29 H8         -9.6112   -0.9459  -31.5973 H           1 MS7       0.0525
     30 H9        -11.4460   -4.6820  -30.9809 H           1 MS7       0.0525
     31 H10       -11.2645   -4.3886  -28.6029 H           1 MS7       0.0530
     32 H11        -9.9574   -4.9374  -33.2174 H           1 MS7       0.0776
     33 H12        -8.6214   -3.8605  -32.7813 H           1 MS7       0.0776
     34 H13        -8.7205   -1.6115  -34.4255 H           1 MS7       0.0557
     35 H14        -8.0407   -1.1558  -36.6942 H           1 MS7       0.0599
     36 H15        -8.1117   -2.9128  -38.3704 H           1 MS7       0.0559
     37 H16        -8.9141   -5.1257  -37.7727 H           1 MS7       0.0599
     38 H17        -9.6181   -5.5962  -35.5121 H           1 MS7       0.0557
     39 H18       -11.4670    0.7727  -27.9672 H           1 MS7       0.1849
     40 H19       -13.5106    1.6394  -28.2107 H           1 MS7       0.0484
     41 H20       -13.6686    1.4272  -26.4578 H           1 MS7       0.0484
     42 H21       -14.1641    0.1240  -27.5675 H           1 MS7       0.0484
@<TRIPOS>BOND
     1     1     2   1
     2     2     3   1
     3     2    18   1
     4     3     4   1
     5     4     5  ar
     6     4     9  ar
     7     5     6  ar
     8     6     7  ar
     9     7     8  ar
    10     7    10   1
    11     8     9  ar
    12    10    11   1
    13    11    12   1
    14    12    13  ar
    15    12    17  ar
    16    13    14  ar
    17    14    15  ar
    18    15    16  ar
    19    16    17  ar
    20    18    19   2
    21    18    20  am
    22    20    21   1
    23     1    22   1
    24     1    23   1
    25     1    24   1
    26     2    25   1
    27     3    26   1
    28     3    27   1
    29     5    28   1
    30     6    29   1
    31     8    30   1
    32     9    31   1
    33    11    32   1
    34    11    33   1
    35    13    34   1
    36    14    35   1
    37    15    36   1
    38    16    37   1
    39    17    38   1
    40    20    39   1
    41    21    40   1
    42    21    41   1
    43    21    42   1
@<TRIPOS>SUBSTRUCTURE
     1  MS7      2

