@<TRIPOS>MOLECULE
3mss_ligand_016
    42    43
SMALL
GAST_HUCK
****
This file was generated by PARSER (from files_GN.cpp)

@<TRIPOS>ATOM
      1 N1         -2.8333   -2.3910  -30.2161 N.4         1 MS7       0.2392
      2 C4         -2.6896   -3.8565  -30.1203 C.3         1 MS7       0.0728
      3 C6         -3.1968   -4.5481  -31.4292 C.3         1 MS7       0.0365
      4 C9         -3.1098   -6.0384  -31.4077 C.ar        1 MS7      -0.0460
      5 C10        -3.8555   -6.7583  -30.4536 C.ar        1 MS7      -0.0684
      6 C12        -3.7323   -8.1529  -30.3530 C.ar        1 MS7      -0.0393
      7 C14        -2.9530   -8.8689  -31.2803 C.ar        1 MS7       0.0868
      8 C15        -2.2174   -8.1669  -32.2580 C.ar        1 MS7      -0.0393
      9 C17        -2.2876   -6.7608  -32.3153 C.ar        1 MS7      -0.0684
     10 O19        -2.8802  -10.2381  -31.1811 O.3         1 MS7      -0.3099
     11 C20        -4.0868  -10.9501  -31.5561 C.3         1 MS7       0.1028
     12 C23        -4.4260  -11.9237  -30.4852 C.ar        1 MS7      -0.0131
     13 C24        -3.8604  -13.2220  -30.4692 C.ar        1 MS7      -0.0578
     14 C26        -4.1838  -14.1318  -29.4392 C.ar        1 MS7      -0.0685
     15 C28        -5.0494  -13.7516  -28.4049 C.ar        1 MS7      -0.0687
     16 C30        -5.6185  -12.4607  -28.4030 C.ar        1 MS7      -0.0685
     17 C32        -5.3205  -11.5660  -29.4435 C.ar        1 MS7      -0.0578
     18 C34        -1.3142   -4.1988  -29.7783 C.2         1 MS7       0.2261
     19 O35        -1.0813   -4.7550  -28.7134 O.2         1 MS7      -0.3907
     20 N36        -0.3323   -3.9420  -30.6327 N.am        1 MS7      -0.2853
     21 C38         1.0415   -4.2579  -30.4393 C.3         1 MS7       0.0197
     22 H1         -3.8152   -2.1600  -30.3883 H           1 MS7       0.2017
     23 H2         -2.2617   -2.0293  -30.9793 H           1 MS7       0.2017
     24 H3         -2.5432   -1.9587  -29.3362 H           1 MS7       0.2017
     25 H4         -3.3543   -4.1538  -29.2940 H           1 MS7       0.1120
     26 H5         -2.6442   -4.1406  -32.2767 H           1 MS7       0.0486
     27 H6         -4.2456   -4.2795  -31.5775 H           1 MS7       0.0486
     28 H7         -4.4841   -6.2799  -29.8099 H           1 MS7       0.0530
     29 H8         -4.2226   -8.6504  -29.6126 H           1 MS7       0.0525
     30 H9         -1.6266   -8.6729  -32.9215 H           1 MS7       0.0525
     31 H10        -1.7356   -6.2623  -33.0196 H           1 MS7       0.0530
     32 H11        -3.8924  -11.4591  -32.4921 H           1 MS7       0.0776
     33 H12        -4.9569  -10.2984  -31.7287 H           1 MS7       0.0776
     34 H13        -3.2269  -13.5171  -31.2169 H           1 MS7       0.0557
     35 H14        -3.7820  -15.0740  -29.4519 H           1 MS7       0.0599
     36 H15        -5.2751  -14.4069  -27.6557 H           1 MS7       0.0559
     37 H16        -6.2507  -12.1842  -27.6536 H           1 MS7       0.0599
     38 H17        -5.7743  -10.6457  -29.4452 H           1 MS7       0.0557
     39 H18        -0.5740   -3.5074  -31.4701 H           1 MS7       0.1849
     40 H19         1.6028   -3.9153  -31.3086 H           1 MS7       0.0484
     41 H20         1.1746   -5.3358  -30.3376 H           1 MS7       0.0484
     42 H21         1.4247   -3.7556  -29.5523 H           1 MS7       0.0484
@<TRIPOS>BOND
     1     1     2   1
     2     2     3   1
     3     2    18   1
     4     3     4   1
     5     4     5  ar
     6     4     9  ar
     7     5     6  ar
     8     6     7  ar
     9     7     8  ar
    10     7    10   1
    11     8     9  ar
    12    10    11   1
    13    11    12   1
    14    12    13  ar
    15    12    17  ar
    16    13    14  ar
    17    14    15  ar
    18    15    16  ar
    19    16    17  ar
    20    18    19   2
    21    18    20  am
    22    20    21   1
    23     1    22   1
    24     1    23   1
    25     1    24   1
    26     2    25   1
    27     3    26   1
    28     3    27   1
    29     5    28   1
    30     6    29   1
    31     8    30   1
    32     9    31   1
    33    11    32   1
    34    11    33   1
    35    13    34   1
    36    14    35   1
    37    15    36   1
    38    16    37   1
    39    17    38   1
    40    20    39   1
    41    21    40   1
    42    21    41   1
    43    21    42   1
@<TRIPOS>SUBSTRUCTURE
     1  MS7      2

