@<TRIPOS>MOLECULE
3mss_ligand_005
    42    43
SMALL
GAST_HUCK
****
This file was generated by PARSER (from files_GN.cpp)

@<TRIPOS>ATOM
      1 N1         -2.0577  -11.3664  -32.0844 N.4         1 MS7       0.2392
      2 C4         -2.3676  -10.0295  -31.5439 C.3         1 MS7       0.0728
      3 C6         -1.8156   -8.9437  -32.5197 C.3         1 MS7       0.0365
      4 C9         -1.7068   -7.5578  -31.9820 C.ar        1 MS7      -0.0460
      5 C10        -0.9046   -7.2884  -30.8479 C.ar        1 MS7      -0.0684
      6 C12        -0.7426   -5.9728  -30.3783 C.ar        1 MS7      -0.0393
      7 C14        -1.3662   -4.8972  -31.0436 C.ar        1 MS7       0.0868
      8 C15        -2.1432   -5.1535  -32.1896 C.ar        1 MS7      -0.0393
      9 C17        -2.3117   -6.4696  -32.6507 C.ar        1 MS7      -0.0684
     10 O19        -1.2309   -3.6059  -30.5908 O.3         1 MS7      -0.3099
     11 C20        -2.0538   -3.2937  -29.4450 C.3         1 MS7       0.1028
     12 C23        -3.5028   -3.3095  -29.7685 C.ar        1 MS7      -0.0131
     13 C24        -4.1036   -2.2018  -30.4062 C.ar        1 MS7      -0.0578
     14 C26        -5.4622   -2.2372  -30.7665 C.ar        1 MS7      -0.0685
     15 C28        -6.2285   -3.3893  -30.5148 C.ar        1 MS7      -0.0687
     16 C30        -5.6392   -4.5023  -29.8889 C.ar        1 MS7      -0.0685
     17 C32        -4.2821   -4.4635  -29.5182 C.ar        1 MS7      -0.0578
     18 C34        -3.7891   -9.8971  -31.2631 C.2         1 MS7       0.2261
     19 O35        -4.1380   -9.3974  -30.1986 O.2         1 MS7      -0.3907
     20 N36        -4.6855  -10.3634  -32.1197 N.am        1 MS7      -0.2853
     21 C38        -6.0928  -10.3378  -31.9294 C.3         1 MS7       0.0197
     22 H1         -1.0425  -11.4583  -32.1139 H           1 MS7       0.2017
     23 H2         -2.4233  -11.4763  -33.0345 H           1 MS7       0.2017
     24 H3         -2.4494  -12.0851  -31.4714 H           1 MS7       0.2017
     25 H4         -1.8101   -9.9801  -30.6017 H           1 MS7       0.1120
     26 H5         -2.4241   -8.9606  -33.4279 H           1 MS7       0.0486
     27 H6         -0.8052   -9.2316  -32.8242 H           1 MS7       0.0486
     28 H7         -0.4129   -8.0451  -30.3721 H           1 MS7       0.0530
     29 H8         -0.1748   -5.7983  -29.5434 H           1 MS7       0.0525
     30 H9         -2.5961   -4.3798  -32.6838 H           1 MS7       0.0525
     31 H10        -2.8712   -6.6257  -33.4891 H           1 MS7       0.0530
     32 H11        -1.7720   -2.2927  -29.1043 H           1 MS7       0.0776
     33 H12        -1.8250   -3.9700  -28.6129 H           1 MS7       0.0776
     34 H13        -3.5549   -1.3641  -30.6157 H           1 MS7       0.0557
     35 H14        -5.8923   -1.4256  -31.2225 H           1 MS7       0.0599
     36 H15        -7.2156   -3.4185  -30.7863 H           1 MS7       0.0559
     37 H16        -6.1954   -5.3450  -29.7122 H           1 MS7       0.0599
     38 H17        -3.8614   -5.2905  -29.0891 H           1 MS7       0.0557
     39 H18        -4.3617  -10.7868  -32.9295 H           1 MS7       0.1849
     40 H19        -6.5739  -10.8166  -32.7851 H           1 MS7       0.0484
     41 H20        -6.4438   -9.3066  -31.8547 H           1 MS7       0.0484
     42 H21        -6.3607  -10.8825  -31.0209 H           1 MS7       0.0484
@<TRIPOS>BOND
     1     1     2   1
     2     2     3   1
     3     2    18   1
     4     3     4   1
     5     4     5  ar
     6     4     9  ar
     7     5     6  ar
     8     6     7  ar
     9     7     8  ar
    10     7    10   1
    11     8     9  ar
    12    10    11   1
    13    11    12   1
    14    12    13  ar
    15    12    17  ar
    16    13    14  ar
    17    14    15  ar
    18    15    16  ar
    19    16    17  ar
    20    18    19   2
    21    18    20  am
    22    20    21   1
    23     1    22   1
    24     1    23   1
    25     1    24   1
    26     2    25   1
    27     3    26   1
    28     3    27   1
    29     5    28   1
    30     6    29   1
    31     8    30   1
    32     9    31   1
    33    11    32   1
    34    11    33   1
    35    13    34   1
    36    14    35   1
    37    15    36   1
    38    16    37   1
    39    17    38   1
    40    20    39   1
    41    21    40   1
    42    21    41   1
    43    21    42   1
@<TRIPOS>SUBSTRUCTURE
     1  MS7      2

