@<TRIPOS>MOLECULE
3mss_ligand_022
    42    43
SMALL
GAST_HUCK
****
This file was generated by PARSER (from files_GN.cpp)

@<TRIPOS>ATOM
      1 N1         -8.1933  -14.3760  -30.1656 N.4         1 MS7       0.2392
      2 C4         -7.3761  -13.2073  -29.7924 C.3         1 MS7       0.0728
      3 C6         -6.2813  -12.9545  -30.8780 C.3         1 MS7       0.0365
      4 C9         -5.4446  -11.7234  -30.7539 C.ar        1 MS7      -0.0460
      5 C10        -4.8717  -11.1411  -31.9108 C.ar        1 MS7      -0.0684
      6 C12        -4.0339  -10.0157  -31.8160 C.ar        1 MS7      -0.0393
      7 C14        -3.7666   -9.4311  -30.5625 C.ar        1 MS7       0.0868
      8 C15        -4.3064  -10.0182  -29.4022 C.ar        1 MS7      -0.0393
      9 C17        -5.1366  -11.1506  -29.4925 C.ar        1 MS7      -0.0684
     10 O19        -2.8719   -8.3924  -30.4938 O.3         1 MS7      -0.3099
     11 C20        -3.3991   -7.1130  -30.0823 C.3         1 MS7       0.1028
     12 C23        -2.3429   -6.0717  -29.9515 C.ar        1 MS7      -0.0131
     13 C24        -2.6780   -4.7983  -29.4214 C.ar        1 MS7      -0.0578
     14 C26        -1.6941   -3.8070  -29.2474 C.ar        1 MS7      -0.0685
     15 C28        -0.3592   -4.0680  -29.6007 C.ar        1 MS7      -0.0687
     16 C30        -0.0112   -5.3206  -30.1375 C.ar        1 MS7      -0.0685
     17 C32        -0.9944   -6.3107  -30.3105 C.ar        1 MS7      -0.0578
     18 C34        -8.2357  -12.0561  -29.5597 C.2         1 MS7       0.2261
     19 O35        -8.0910  -11.4134  -28.5241 O.2         1 MS7      -0.3907
     20 N36        -9.1066  -11.6639  -30.4801 N.am        1 MS7      -0.2853
     21 C38        -9.9257  -10.5033  -30.3855 C.3         1 MS7       0.0197
     22 H1         -7.5931  -15.1967  -30.2751 H           1 MS7       0.2017
     23 H2         -8.6756  -14.1968  -31.0468 H           1 MS7       0.2017
     24 H3         -8.8820  -14.5665  -29.4363 H           1 MS7       0.2017
     25 H4         -6.8688  -13.4933  -28.8653 H           1 MS7       0.1120
     26 H5         -6.7755  -12.9706  -31.8552 H           1 MS7       0.0486
     27 H6         -5.5919  -13.7994  -30.8629 H           1 MS7       0.0486
     28 H7         -5.0453  -11.5430  -32.8370 H           1 MS7       0.0530
     29 H8         -3.5955   -9.6301  -32.6524 H           1 MS7       0.0525
     30 H9         -4.0869   -9.6277  -28.4814 H           1 MS7       0.0525
     31 H10        -5.5157  -11.5419  -28.6294 H           1 MS7       0.0530
     32 H11        -3.8879   -7.2147  -29.1071 H           1 MS7       0.0776
     33 H12        -4.1382   -6.7774  -30.8153 H           1 MS7       0.0776
     34 H13        -3.6423   -4.5904  -29.1482 H           1 MS7       0.0557
     35 H14        -1.9456   -2.8936  -28.8585 H           1 MS7       0.0599
     36 H15         0.3609   -3.3521  -29.4681 H           1 MS7       0.0559
     37 H16         0.9605   -5.5132  -30.3966 H           1 MS7       0.0599
     38 H17        -0.7086   -7.2105  -30.6996 H           1 MS7       0.0557
     39 H18        -9.1710  -12.1881  -31.2953 H           1 MS7       0.1849
     40 H19       -10.5784  -10.4542  -31.2562 H           1 MS7       0.0484
     41 H20        -9.3064   -9.6050  -30.3586 H           1 MS7       0.0484
     42 H21       -10.5426  -10.5441  -29.4872 H           1 MS7       0.0484
@<TRIPOS>BOND
     1     1     2   1
     2     2     3   1
     3     2    18   1
     4     3     4   1
     5     4     5  ar
     6     4     9  ar
     7     5     6  ar
     8     6     7  ar
     9     7     8  ar
    10     7    10   1
    11     8     9  ar
    12    10    11   1
    13    11    12   1
    14    12    13  ar
    15    12    17  ar
    16    13    14  ar
    17    14    15  ar
    18    15    16  ar
    19    16    17  ar
    20    18    19   2
    21    18    20  am
    22    20    21   1
    23     1    22   1
    24     1    23   1
    25     1    24   1
    26     2    25   1
    27     3    26   1
    28     3    27   1
    29     5    28   1
    30     6    29   1
    31     8    30   1
    32     9    31   1
    33    11    32   1
    34    11    33   1
    35    13    34   1
    36    14    35   1
    37    15    36   1
    38    16    37   1
    39    17    38   1
    40    20    39   1
    41    21    40   1
    42    21    41   1
    43    21    42   1
@<TRIPOS>SUBSTRUCTURE
     1  MS7      2

