@<TRIPOS>MOLECULE
3mss_ligand_000
    42    43
SMALL
GAST_HUCK
****
This file was generated by PARSER (from files_GN.cpp)

@<TRIPOS>ATOM
      1 N1         -2.1526  -10.0955  -32.8408 N.4         1 MS7       0.2392
      2 C4         -2.8491  -10.7642  -31.7265 C.3         1 MS7       0.0728
      3 C6         -4.3519  -10.3202  -31.6402 C.3         1 MS7       0.0365
      4 C9         -4.6137   -8.8903  -31.2836 C.ar        1 MS7      -0.0460
      5 C10        -5.6657   -8.1557  -31.8936 C.ar        1 MS7      -0.0684
      6 C12        -5.9029   -6.8067  -31.5552 C.ar        1 MS7      -0.0393
      7 C14        -5.0810   -6.1588  -30.6060 C.ar        1 MS7       0.0868
      8 C15        -4.0867   -6.8926  -29.9340 C.ar        1 MS7      -0.0393
      9 C17        -3.8727   -8.2522  -30.2573 C.ar        1 MS7      -0.0684
     10 O19        -5.2334   -4.8288  -30.3061 O.3         1 MS7      -0.3099
     11 C20        -4.3798   -3.9256  -31.0483 C.3         1 MS7       0.1028
     12 C23        -2.9349   -4.2818  -30.9619 C.ar        1 MS7      -0.0131
     13 C24        -2.2329   -4.7530  -32.0921 C.ar        1 MS7      -0.0578
     14 C26        -0.9254   -5.2557  -31.9609 C.ar        1 MS7      -0.0685
     15 C28        -0.2975   -5.2702  -30.7029 C.ar        1 MS7      -0.0687
     16 C30        -0.9623   -4.7330  -29.5827 C.ar        1 MS7      -0.0685
     17 C32        -2.2765   -4.2499  -29.7111 C.ar        1 MS7      -0.0578
     18 C34        -2.6297  -12.2100  -31.8244 C.2         1 MS7       0.2261
     19 O35        -3.5826  -12.9802  -31.9299 O.2         1 MS7      -0.3907
     20 N36        -1.3956  -12.6937  -31.7346 N.am        1 MS7      -0.2853
     21 C38        -1.0425  -14.0719  -31.7019 C.3         1 MS7       0.0197
     22 H1         -2.4029   -9.1039  -32.8766 H           1 MS7       0.2017
     23 H2         -2.4051  -10.5385  -33.7302 H           1 MS7       0.2017
     24 H3         -1.1430  -10.1803  -32.6973 H           1 MS7       0.2017
     25 H4         -2.3549  -10.4320  -30.8045 H           1 MS7       0.1120
     26 H5         -4.8566  -10.9186  -30.8757 H           1 MS7       0.0486
     27 H6         -4.8326  -10.5556  -32.5955 H           1 MS7       0.0486
     28 H7         -6.2805   -8.6022  -32.5772 H           1 MS7       0.0530
     29 H8         -6.6647   -6.2971  -32.0120 H           1 MS7       0.0525
     30 H9         -3.5003   -6.4345  -29.2292 H           1 MS7       0.0525
     31 H10        -3.1557   -8.7734  -29.7479 H           1 MS7       0.0530
     32 H11        -4.5223   -2.9231  -30.6316 H           1 MS7       0.0776
     33 H12        -4.7212   -3.8803  -32.0870 H           1 MS7       0.0776
     34 H13        -2.6759   -4.7566  -33.0139 H           1 MS7       0.0557
     35 H14        -0.4269   -5.5934  -32.7831 H           1 MS7       0.0599
     36 H15         0.6473   -5.6474  -30.6051 H           1 MS7       0.0559
     37 H16        -0.4991   -4.7160  -28.6740 H           1 MS7       0.0599
     38 H17        -2.7473   -3.8599  -28.8921 H           1 MS7       0.0557
     39 H18        -0.6716  -12.0486  -31.6678 H           1 MS7       0.1849
     40 H19         0.0427  -14.1597  -31.6255 H           1 MS7       0.0484
     41 H20        -1.3708  -14.5757  -32.6137 H           1 MS7       0.0484
     42 H21        -1.4891  -14.5684  -30.8362 H           1 MS7       0.0484
@<TRIPOS>BOND
     1     1     2   1
     2     2     3   1
     3     2    18   1
     4     3     4   1
     5     4     5  ar
     6     4     9  ar
     7     5     6  ar
     8     6     7  ar
     9     7     8  ar
    10     7    10   1
    11     8     9  ar
    12    10    11   1
    13    11    12   1
    14    12    13  ar
    15    12    17  ar
    16    13    14  ar
    17    14    15  ar
    18    15    16  ar
    19    16    17  ar
    20    18    19   2
    21    18    20  am
    22    20    21   1
    23     1    22   1
    24     1    23   1
    25     1    24   1
    26     2    25   1
    27     3    26   1
    28     3    27   1
    29     5    28   1
    30     6    29   1
    31     8    30   1
    32     9    31   1
    33    11    32   1
    34    11    33   1
    35    13    34   1
    36    14    35   1
    37    15    36   1
    38    16    37   1
    39    17    38   1
    40    20    39   1
    41    21    40   1
    42    21    41   1
    43    21    42   1
@<TRIPOS>SUBSTRUCTURE
     1  MS7      2

