@<TRIPOS>MOLECULE
3mss_ligand_007
    42    43
SMALL
GAST_HUCK
****
This file was generated by PARSER (from files_GN.cpp)

@<TRIPOS>ATOM
      1 N1         -4.2277  -11.1366  -29.4044 N.4         1 MS7       0.2392
      2 C4         -4.6747  -11.7109  -30.6877 C.3         1 MS7       0.0728
      3 C6         -4.9093  -10.6172  -31.7806 C.3         1 MS7       0.0365
      4 C9         -3.8614   -9.5598  -31.8538 C.ar        1 MS7      -0.0460
      5 C10        -3.9522   -8.4148  -31.0286 C.ar        1 MS7      -0.0684
      6 C12        -2.9472   -7.4328  -31.0419 C.ar        1 MS7      -0.0393
      7 C14        -1.8398   -7.5633  -31.9049 C.ar        1 MS7       0.0868
      8 C15        -1.7340   -8.7054  -32.7230 C.ar        1 MS7      -0.0393
      9 C17        -2.7402   -9.6896  -32.7070 C.ar        1 MS7      -0.0684
     10 O19        -0.8186   -6.6517  -31.9413 O.3         1 MS7      -0.3099
     11 C20        -1.1459   -5.2929  -32.2986 C.3         1 MS7       0.1028
     12 C23        -1.2679   -4.4339  -31.0932 C.ar        1 MS7      -0.0131
     13 C24        -2.4236   -3.6536  -30.8519 C.ar        1 MS7      -0.0578
     14 C26        -2.5010   -2.8168  -29.7223 C.ar        1 MS7      -0.0685
     15 C28        -1.4277   -2.7548  -28.8175 C.ar        1 MS7      -0.0687
     16 C30        -0.2773   -3.5324  -29.0382 C.ar        1 MS7      -0.0685
     17 C32        -0.1970   -4.3640  -30.1708 C.ar        1 MS7      -0.0578
     18 C34        -3.7648  -12.7678  -31.1170 C.2         1 MS7       0.2261
     19 O35        -4.2226  -13.8783  -31.3624 O.2         1 MS7      -0.3907
     20 N36        -2.4657  -12.5336  -31.2482 N.am        1 MS7      -0.2853
     21 C38        -1.4962  -13.4750  -31.6996 C.3         1 MS7       0.0197
     22 H1         -4.9162  -10.4571  -29.0741 H           1 MS7       0.2017
     23 H2         -3.3282  -10.6668  -29.5301 H           1 MS7       0.2017
     24 H3         -4.1188  -11.8703  -28.7013 H           1 MS7       0.2017
     25 H4         -5.6531  -12.1593  -30.4809 H           1 MS7       0.1120
     26 H5         -5.8707  -10.1353  -31.5766 H           1 MS7       0.0486
     27 H6         -5.0240  -11.0934  -32.7592 H           1 MS7       0.0486
     28 H7         -4.7485   -8.2949  -30.3974 H           1 MS7       0.0530
     29 H8         -3.0256   -6.6269  -30.4200 H           1 MS7       0.0525
     30 H9         -0.9195   -8.8262  -33.3287 H           1 MS7       0.0525
     31 H10        -2.6406  -10.5084  -33.3095 H           1 MS7       0.0530
     32 H11        -2.0365   -5.2364  -32.9366 H           1 MS7       0.0776
     33 H12        -0.3085   -4.9153  -32.8891 H           1 MS7       0.0776
     34 H13        -3.2148   -3.6819  -31.4992 H           1 MS7       0.0557
     35 H14        -3.3380   -2.2507  -29.5584 H           1 MS7       0.0599
     36 H15        -1.4874   -2.1493  -27.9960 H           1 MS7       0.0559
     37 H16         0.5027   -3.4908  -28.3775 H           1 MS7       0.0599
     38 H17         0.6518   -4.9171  -30.3202 H           1 MS7       0.0557
     39 H18        -2.1434  -11.6465  -31.0249 H           1 MS7       0.1849
     40 H19        -0.5155  -12.9988  -31.7013 H           1 MS7       0.0484
     41 H20        -1.7293  -13.8010  -32.7152 H           1 MS7       0.0484
     42 H21        -1.4646  -14.3417  -31.0363 H           1 MS7       0.0484
@<TRIPOS>BOND
     1     1     2   1
     2     2     3   1
     3     2    18   1
     4     3     4   1
     5     4     5  ar
     6     4     9  ar
     7     5     6  ar
     8     6     7  ar
     9     7     8  ar
    10     7    10   1
    11     8     9  ar
    12    10    11   1
    13    11    12   1
    14    12    13  ar
    15    12    17  ar
    16    13    14  ar
    17    14    15  ar
    18    15    16  ar
    19    16    17  ar
    20    18    19   2
    21    18    20  am
    22    20    21   1
    23     1    22   1
    24     1    23   1
    25     1    24   1
    26     2    25   1
    27     3    26   1
    28     3    27   1
    29     5    28   1
    30     6    29   1
    31     8    30   1
    32     9    31   1
    33    11    32   1
    34    11    33   1
    35    13    34   1
    36    14    35   1
    37    15    36   1
    38    16    37   1
    39    17    38   1
    40    20    39   1
    41    21    40   1
    42    21    41   1
    43    21    42   1
@<TRIPOS>SUBSTRUCTURE
     1  MS7      2

