@<TRIPOS>MOLECULE
3mss_ligand_004
    42    43
SMALL
GAST_HUCK
****
This file was generated by PARSER (from files_GN.cpp)

@<TRIPOS>ATOM
      1 N1        -11.5253   -0.5596  -29.6528 N.4         1 MS7       0.2392
      2 C4        -10.4231   -1.5341  -29.5803 C.3         1 MS7       0.0728
      3 C6         -9.1591   -0.9842  -30.3197 C.3         1 MS7       0.0365
      4 C9         -8.0311   -1.9275  -30.5967 C.ar        1 MS7      -0.0460
      5 C10        -6.7098   -1.4264  -30.6764 C.ar        1 MS7      -0.0684
      6 C12        -5.6285   -2.2629  -31.0169 C.ar        1 MS7      -0.0393
      7 C14        -5.8429   -3.6321  -31.2787 C.ar        1 MS7       0.0868
      8 C15        -7.1579   -4.1341  -31.2513 C.ar        1 MS7      -0.0393
      9 C17        -8.2384   -3.2936  -30.9296 C.ar        1 MS7      -0.0684
     10 O19        -4.8006   -4.4570  -31.6098 O.3         1 MS7      -0.3099
     11 C20        -4.4169   -5.4303  -30.6110 C.3         1 MS7       0.1028
     12 C23        -3.0579   -5.1215  -30.1039 C.ar        1 MS7      -0.0131
     13 C24        -1.9946   -6.0478  -30.2223 C.ar        1 MS7      -0.0578
     14 C26        -0.7049   -5.7200  -29.7653 C.ar        1 MS7      -0.0685
     15 C28        -0.4602   -4.4615  -29.1903 C.ar        1 MS7      -0.0687
     16 C30        -1.5112   -3.5411  -29.0394 C.ar        1 MS7      -0.0685
     17 C32        -2.8039   -3.8766  -29.4762 C.ar        1 MS7      -0.0578
     18 C34       -10.1534   -1.8944  -28.1937 C.2         1 MS7       0.2261
     19 O35       -10.1237   -3.0826  -27.8869 O.2         1 MS7      -0.3907
     20 N36        -9.9250   -0.9550  -27.2838 N.am        1 MS7      -0.2853
     21 C38        -9.6324   -1.1835  -25.9084 C.3         1 MS7       0.0197
     22 H1        -11.7385   -0.3862  -30.6369 H           1 MS7       0.2017
     23 H2        -11.2633    0.3209  -29.2007 H           1 MS7       0.2017
     24 H3        -12.3535   -0.9500  -29.1964 H           1 MS7       0.2017
     25 H4        -10.8145   -2.3998  -30.1234 H           1 MS7       0.1120
     26 H5         -8.7860   -0.1265  -29.7509 H           1 MS7       0.0486
     27 H6         -9.4640   -0.5871  -31.2891 H           1 MS7       0.0486
     28 H7         -6.5257   -0.4346  -30.5055 H           1 MS7       0.0530
     29 H8         -4.6822   -1.8643  -31.0737 H           1 MS7       0.0525
     30 H9         -7.3251   -5.1153  -31.4768 H           1 MS7       0.0525
     31 H10        -9.1843   -3.6887  -30.9547 H           1 MS7       0.0530
     32 H11        -4.4326   -6.4077  -31.1005 H           1 MS7       0.0776
     33 H12        -5.0984   -5.4920  -29.7573 H           1 MS7       0.0776
     34 H13        -2.1538   -6.9683  -30.6392 H           1 MS7       0.0557
     35 H14         0.0544   -6.4004  -29.8525 H           1 MS7       0.0599
     36 H15         0.4779   -4.2147  -28.8742 H           1 MS7       0.0559
     37 H16        -1.3375   -2.6274  -28.6183 H           1 MS7       0.0599
     38 H17        -3.5610   -3.2038  -29.3338 H           1 MS7       0.0557
     39 H18        -9.9647   -0.0307  -27.5748 H           1 MS7       0.1849
     40 H19        -9.5425   -0.2208  -25.4037 H           1 MS7       0.0484
     41 H20        -8.6876   -1.7219  -25.8065 H           1 MS7       0.0484
     42 H21       -10.4313   -1.7560  -25.4302 H           1 MS7       0.0484
@<TRIPOS>BOND
     1     1     2   1
     2     2     3   1
     3     2    18   1
     4     3     4   1
     5     4     5  ar
     6     4     9  ar
     7     5     6  ar
     8     6     7  ar
     9     7     8  ar
    10     7    10   1
    11     8     9  ar
    12    10    11   1
    13    11    12   1
    14    12    13  ar
    15    12    17  ar
    16    13    14  ar
    17    14    15  ar
    18    15    16  ar
    19    16    17  ar
    20    18    19   2
    21    18    20  am
    22    20    21   1
    23     1    22   1
    24     1    23   1
    25     1    24   1
    26     2    25   1
    27     3    26   1
    28     3    27   1
    29     5    28   1
    30     6    29   1
    31     8    30   1
    32     9    31   1
    33    11    32   1
    34    11    33   1
    35    13    34   1
    36    14    35   1
    37    15    36   1
    38    16    37   1
    39    17    38   1
    40    20    39   1
    41    21    40   1
    42    21    41   1
    43    21    42   1
@<TRIPOS>SUBSTRUCTURE
     1  MS7      2

