@<TRIPOS>MOLECULE
3myg_ligand_037
    57    60
SMALL
GAST_HUCK
****
This file was generated by PARSER (from files_GN.cpp)

@<TRIPOS>ATOM
      1 C1         -2.4398   33.3828   80.7535 C.2         1 EML       0.0195
      2 N1         -5.8372   28.5087   80.4921 N.pl3       1 EML      -0.2184
      3 O1        -11.6129   24.4670   82.1733 O.3         1 EML      -0.3892
      4 S1         -7.4299   27.4194   78.5345 S.3         1 EML       0.0206
      5 C2         -4.2144   31.8069   78.6468 C.2         1 EML       0.0730
      6 N2         -4.1315   30.4252   81.8633 N.2         1 EML      -0.3304
      7 C3         -5.0117   30.9763   77.9372 C.2         1 EML       0.0276
      8 N3         -3.9443   31.5410   79.9506 N.pl3       1 EML      -0.2136
      9 C4         -7.4531   24.1234   83.1824 C.3         1 EML      -0.0323
     10 N4         -1.1523   34.9973   79.9743 N.pl3       1 EML      -0.2209
     11 C5         -5.3163   29.5775   79.8529 C.2         1 EML       0.1947
     12 N5         -1.3730   35.2817   81.2198 N.2         1 EML      -0.2182
     13 C6         -4.4812   30.4640   80.5681 C.2         1 EML       0.1969
     14 N6         -8.2220   26.0957   79.1266 N.2         1 EML      -0.3061
     15 C7         -3.2159   32.2076   80.8775 C.2         1 EML       0.0797
     16 N7         -5.5381   29.8958   78.5463 N.2         1 EML      -0.2843
     17 C8         -2.1466   34.3191   81.7423 C.2         1 EML       0.0048
     18 N8         -8.7400   24.5233   82.4864 N.4         1 EML       0.2558
     19 C9         -3.3560   31.4968   82.0723 C.2         1 EML      -0.0220
     20 C10        -1.7640   33.8538   79.6343 C.2         1 EML       0.0562
     21 C11        -6.6870   27.5811   80.0625 C.2         1 EML       0.1479
     22 C12        -7.0850   26.6139   80.8862 C.2         1 EML      -0.0058
     23 C13        -8.6428   24.6528   80.9797 C.3         1 EML       0.0137
     24 C14        -7.9983   25.8056   80.3498 C.2         1 EML       0.0332
     25 C15        -9.6216   25.5495   83.2245 C.3         1 EML       0.0096
     26 C16        -6.3517   23.4035   82.3616 C.3         1 EML      -0.0244
     27 C17       -11.0143   25.7166   82.5118 C.3         1 EML       0.0892
     28 C18        -8.9782   26.9725   83.3560 C.3         1 EML      -0.0168
     29 C19        -5.3165   31.2149   76.5396 C.3         1 EML      -0.0245
     30 C20        -9.9386   25.0648   84.6839 C.3         1 EML      -0.0168
     31 H1         -5.5632   28.4148   81.4184 H           1 EML       0.2327
     32 H2        -11.9379   24.0902   83.0184 H           1 EML       0.2097
     33 H3         -3.8584   32.6272   78.2168 H           1 EML       0.0922
     34 H4         -7.7134   23.4002   83.9570 H           1 EML       0.0812
     35 H5         -6.9977   24.9791   83.6881 H           1 EML       0.0812
     36 H6         -0.6113   35.5323   79.3743 H           1 EML       0.2577
     37 H7         -2.4747   34.2965   82.7111 H           1 EML       0.0660
     38 H8         -9.2878   23.6662   82.5790 H           1 EML       0.2059
     39 H9         -2.9276   31.7280   82.9713 H           1 EML       0.0468
     40 H10        -1.7020   33.4046   78.7217 H           1 EML       0.0974
     41 H11        -6.7376   26.5379   81.8080 H           1 EML       0.0280
     42 H12        -9.6525   24.5638   80.5747 H           1 EML       0.1036
     43 H13        -8.1510   23.7709   80.5689 H           1 EML       0.1036
     44 H14        -5.5481   23.0704   83.0221 H           1 EML       0.0281
     45 H15        -5.9162   24.0651   81.6134 H           1 EML       0.0281
     46 H16        -6.7761   22.5302   81.8653 H           1 EML       0.0281
     47 H17       -11.7184   26.2622   83.1432 H           1 EML       0.0616
     48 H18       -10.9176   26.2961   81.5937 H           1 EML       0.0616
     49 H19        -9.5900   27.6196   83.9899 H           1 EML       0.0288
     50 H20        -8.8946   27.4678   82.3898 H           1 EML       0.0288
     51 H21        -7.9851   26.9149   83.8033 H           1 EML       0.0288
     52 H22        -6.0292   30.4845   76.1488 H           1 EML       0.0384
     53 H23        -4.4014   31.1475   75.9495 H           1 EML       0.0384
     54 H24        -5.7466   32.2103   76.4165 H           1 EML       0.0384
     55 H25       -10.6879   25.6941   85.1696 H           1 EML       0.0288
     56 H26        -9.0461   25.0971   85.3122 H           1 EML       0.0288
     57 H27       -10.3109   24.0382   84.6719 H           1 EML       0.0288
@<TRIPOS>BOND
     1    15     1   1
     2     1    17   1
     3     1    20   2
     4     2    11   1
     5    21     2   1
     6    27     3   1
     7    14     4   1
     8    21     4   1
     9     7     5   2
    10     8     5   1
    11    13     6   2
    12     6    19   1
    13    16     7   1
    14     7    29   1
    15    13     8   1
    16     8    15   1
    17    18     9   1
    18     9    26   1
    19    10    12   1
    20    20    10   1
    21    11    13   1
    22    11    16   2
    23    17    12   2
    24    24    14   2
    25    15    19   2
    26    18    23   1
    27    25    18   1
    28    22    21   2
    29    24    22   1
    30    23    24   1
    31    25    27   1
    32    25    28   1
    33    25    30   1
    34     2    31   1
    35     3    32   1
    36     5    33   1
    37     9    34   1
    38     9    35   1
    39    10    36   1
    40    17    37   1
    41    18    38   1
    42    19    39   1
    43    20    40   1
    44    22    41   1
    45    23    42   1
    46    23    43   1
    47    26    44   1
    48    26    45   1
    49    26    46   1
    50    27    47   1
    51    27    48   1
    52    28    49   1
    53    28    50   1
    54    28    51   1
    55    29    52   1
    56    29    53   1
    57    29    54   1
    58    30    55   1
    59    30    56   1
    60    30    57   1
@<TRIPOS>SUBSTRUCTURE
     1  EML      1

