@<TRIPOS>MOLECULE
3myg_ligand_067
    57    60
SMALL
GAST_HUCK
****
This file was generated by PARSER (from files_GN.cpp)

@<TRIPOS>ATOM
      1 C1         -5.7248   30.5403   80.2451 C.2         1 EML       0.0195
      2 N1         -2.7527   32.1885   85.1470 N.pl3       1 EML      -0.2184
      3 O1         -0.9230   36.5625   87.1664 O.3         1 EML      -0.3892
      4 S1         -0.2166   33.1469   85.4921 S.3         1 EML       0.0206
      5 C2         -3.0555   32.0542   81.0351 C.2         1 EML       0.0730
      6 N2         -5.0273   31.0170   83.7337 N.2         1 EML      -0.3304
      7 C3         -1.9729   32.6414   81.6038 C.2         1 EML       0.0276
      8 N3         -4.0180   31.5116   81.8163 N.pl3       1 EML      -0.2136
      9 C4          1.0298   35.3613   89.3478 C.3         1 EML      -0.0323
     10 N4         -7.1330   29.9395   78.6566 N.pl3       1 EML      -0.2209
     11 C5         -2.8170   32.1529   83.7970 C.2         1 EML       0.1947
     12 N5         -5.9578   29.9023   78.1223 N.2         1 EML      -0.2182
     13 C6         -3.9425   31.5688   83.1677 C.2         1 EML       0.1969
     14 N6          0.1056   33.4505   87.0741 N.2         1 EML      -0.3061
     15 C7         -5.1844   30.8918   81.5074 C.2         1 EML       0.0797
     16 N7         -1.8753   32.6540   82.9480 N.2         1 EML      -0.2843
     17 C8         -5.0567   30.2627   79.0592 C.2         1 EML       0.0048
     18 N8         -0.3905   34.9632   89.7188 N.4         1 EML       0.2558
     19 C9         -5.8015   30.6048   82.7249 C.2         1 EML      -0.0220
     20 C10        -7.0664   30.3145   79.9390 C.2         1 EML       0.0562
     21 C11        -1.7918   32.6680   85.9386 C.2         1 EML       0.1479
     22 C12        -1.9517   32.7707   87.2537 C.2         1 EML      -0.0058
     23 C13        -0.7666   33.5528   89.3030 C.3         1 EML       0.0137
     24 C14        -0.8662   33.2623   87.8779 C.2         1 EML       0.0332
     25 C15        -1.4761   36.0443   89.5487 C.3         1 EML       0.0096
     26 C16         2.1640   34.3693   89.7158 C.3         1 EML      -0.0244
     27 C17        -1.9768   36.2802   88.0786 C.3         1 EML       0.0892
     28 C18        -1.0099   37.4407   90.1064 C.3         1 EML      -0.0168
     29 C19        -0.9499   33.2836   80.8055 C.3         1 EML      -0.0245
     30 C20        -2.7273   35.6720   90.4238 C.3         1 EML      -0.0168
     31 H1         -3.5197   31.8151   85.6056 H           1 EML       0.2327
     32 H2         -1.3580   36.6738   86.2947 H           1 EML       0.2097
     33 H3         -3.1530   32.0661   80.0514 H           1 EML       0.0922
     34 H4          1.2951   36.2602   89.9067 H           1 EML       0.0812
     35 H5          1.1145   35.6009   88.2875 H           1 EML       0.0812
     36 H6         -7.9560   29.7109   78.1902 H           1 EML       0.2577
     37 H7         -4.0500   30.2683   78.9072 H           1 EML       0.0660
     38 H8         -0.3225   34.8783   90.7354 H           1 EML       0.2059
     39 H9         -6.6972   30.1245   82.8494 H           1 EML       0.0468
     40 H10        -7.8632   30.4085   80.5702 H           1 EML       0.0974
     41 H11        -2.7957   32.5242   87.7267 H           1 EML       0.0280
     42 H12        -1.6950   33.2697   89.7951 H           1 EML       0.1036
     43 H13        -0.0392   32.8524   89.7237 H           1 EML       0.1036
     44 H14         3.1355   34.8483   89.5798 H           1 EML       0.0281
     45 H15         2.1353   33.4830   89.0769 H           1 EML       0.0281
     46 H16         2.0679   34.0647   90.7612 H           1 EML       0.0281
     47 H17        -2.5202   35.4119   87.7100 H           1 EML       0.0616
     48 H18        -2.6728   37.1214   88.0419 H           1 EML       0.0616
     49 H19        -1.8330   38.1554   90.1589 H           1 EML       0.0288
     50 H20        -0.2486   37.8895   89.4659 H           1 EML       0.0288
     51 H21        -0.5966   37.3263   91.1117 H           1 EML       0.0288
     52 H22        -0.1684   33.7161   81.4345 H           1 EML       0.0384
     53 H23        -1.3908   34.0869   80.2105 H           1 EML       0.0384
     54 H24        -0.4881   32.5594   80.1323 H           1 EML       0.0384
     55 H25        -3.4511   36.4907   90.4708 H           1 EML       0.0288
     56 H26        -2.4165   35.4358   91.4447 H           1 EML       0.0288
     57 H27        -3.2685   34.8133   90.0240 H           1 EML       0.0288
@<TRIPOS>BOND
     1    15     1   1
     2     1    17   1
     3     1    20   2
     4     2    11   1
     5    21     2   1
     6    27     3   1
     7    14     4   1
     8    21     4   1
     9     7     5   2
    10     8     5   1
    11    13     6   2
    12     6    19   1
    13    16     7   1
    14     7    29   1
    15    13     8   1
    16     8    15   1
    17    18     9   1
    18     9    26   1
    19    10    12   1
    20    20    10   1
    21    11    13   1
    22    11    16   2
    23    17    12   2
    24    24    14   2
    25    15    19   2
    26    18    23   1
    27    25    18   1
    28    22    21   2
    29    24    22   1
    30    23    24   1
    31    25    27   1
    32    25    28   1
    33    25    30   1
    34     2    31   1
    35     3    32   1
    36     5    33   1
    37     9    34   1
    38     9    35   1
    39    10    36   1
    40    17    37   1
    41    18    38   1
    42    19    39   1
    43    20    40   1
    44    22    41   1
    45    23    42   1
    46    23    43   1
    47    26    44   1
    48    26    45   1
    49    26    46   1
    50    27    47   1
    51    27    48   1
    52    28    49   1
    53    28    50   1
    54    28    51   1
    55    29    52   1
    56    29    53   1
    57    29    54   1
    58    30    55   1
    59    30    56   1
    60    30    57   1
@<TRIPOS>SUBSTRUCTURE
     1  EML      1

