@<TRIPOS>MOLECULE
3myg_ligand_062
    57    60
SMALL
GAST_HUCK
****
This file was generated by PARSER (from files_GN.cpp)

@<TRIPOS>ATOM
      1 C1         -8.2399   27.3125   75.5315 C.2         1 EML       0.0195
      2 N1         -6.0447   29.6353   80.5430 N.pl3       1 EML      -0.2184
      3 O1         -0.4835   36.5601   81.8761 O.3         1 EML      -0.3892
      4 S1         -5.6832   30.2746   83.0462 S.3         1 EML       0.0206
      5 C2         -6.5186   29.7279   76.4433 C.2         1 EML       0.0730
      6 N2         -7.3210   27.4622   78.9897 N.2         1 EML      -0.3304
      7 C3         -5.8679   30.7334   77.0671 C.2         1 EML       0.0276
      8 N3         -6.9996   28.6989   77.1730 N.pl3       1 EML      -0.2136
      9 C4         -1.8192   32.9682   81.9808 C.3         1 EML      -0.0323
     10 N4         -9.0463   26.2330   73.7938 N.pl3       1 EML      -0.2209
     11 C5         -6.1586   29.6643   79.1958 C.2         1 EML       0.1947
     12 N5         -9.4033   27.4690   73.6423 N.2         1 EML      -0.2182
     13 C6         -6.8055   28.6081   78.5120 C.2         1 EML       0.1969
     14 N6         -5.0156   31.7595   83.3156 N.2         1 EML      -0.3061
     15 C7         -7.6880   27.6057   76.7933 C.2         1 EML       0.0797
     16 N7         -5.7244   30.6840   78.4060 N.2         1 EML      -0.2843
     17 C8         -8.9181   28.1730   74.6788 C.2         1 EML       0.0048
     18 N8         -2.7299   33.8287   82.8344 N.4         1 EML       0.2558
     19 C9         -7.8562   26.8233   77.9398 C.2         1 EML      -0.0220
     20 C10        -8.3281   26.0768   74.9120 C.2         1 EML       0.0562
     21 C11        -5.5690   30.5605   81.3763 C.2         1 EML       0.1479
     22 C12        -5.0211   31.7530   81.1352 C.2         1 EML      -0.0058
     23 C13        -4.1492   33.7525   82.3169 C.3         1 EML       0.0137
     24 C14        -4.7136   32.4135   82.2590 C.2         1 EML       0.0332
     25 C15        -2.1997   35.2279   83.1868 C.3         1 EML       0.0096
     26 C16        -1.7805   31.5027   82.4781 C.3         1 EML      -0.0244
     27 C17        -1.8320   36.0985   81.9261 C.3         1 EML       0.0892
     28 C18        -0.9581   35.0917   84.1435 C.3         1 EML      -0.0168
     29 C19        -5.3229   31.8526   76.3334 C.3         1 EML      -0.0245
     30 C20        -3.2443   36.0482   84.0369 C.3         1 EML      -0.0168
     31 H1         -6.4019   28.8417   80.9692 H           1 EML       0.2327
     32 H2         -0.3930   36.9778   80.9898 H           1 EML       0.2097
     33 H3         -6.6147   29.7258   75.4558 H           1 EML       0.0922
     34 H4         -0.7936   33.3214   81.9845 H           1 EML       0.0812
     35 H5         -2.1133   32.9674   80.9246 H           1 EML       0.0812
     36 H6         -9.2993   25.5004   73.2154 H           1 EML       0.2577
     37 H7         -9.0923   29.1639   74.8437 H           1 EML       0.0660
     38 H8         -2.7699   33.3632   83.7438 H           1 EML       0.2059
     39 H9         -8.3589   25.9342   77.9909 H           1 EML       0.0468
     40 H10        -7.9414   25.2022   75.2557 H           1 EML       0.0974
     41 H11        -4.8535   32.1307   80.2321 H           1 EML       0.0280
     42 H12        -4.2091   34.2392   81.3389 H           1 EML       0.1036
     43 H13        -4.8380   34.2756   82.9699 H           1 EML       0.1036
     44 H14        -0.9248   30.9821   82.0389 H           1 EML       0.0281
     45 H15        -2.6835   30.9657   82.1826 H           1 EML       0.0281
     46 H16        -1.6920   31.4591   83.5671 H           1 EML       0.0281
     47 H17        -2.0135   35.5265   81.0192 H           1 EML       0.0616
     48 H18        -2.4520   36.9989   81.8780 H           1 EML       0.0616
     49 H19        -0.5854   36.0792   84.4455 H           1 EML       0.0288
     50 H20        -0.1241   34.5805   83.6703 H           1 EML       0.0288
     51 H21        -1.2360   34.5364   85.0455 H           1 EML       0.0288
     52 H22        -4.8376   32.5665   77.0035 H           1 EML       0.0384
     53 H23        -6.1150   32.3780   75.7943 H           1 EML       0.0384
     54 H24        -4.5810   31.4925   75.6173 H           1 EML       0.0384
     55 H25        -2.7927   36.9247   84.5161 H           1 EML       0.0288
     56 H26        -3.6692   35.4240   84.8252 H           1 EML       0.0288
     57 H27        -4.0592   36.4301   83.4157 H           1 EML       0.0288
@<TRIPOS>BOND
     1    15     1   1
     2     1    17   1
     3     1    20   2
     4     2    11   1
     5    21     2   1
     6    27     3   1
     7    14     4   1
     8    21     4   1
     9     7     5   2
    10     8     5   1
    11    13     6   2
    12     6    19   1
    13    16     7   1
    14     7    29   1
    15    13     8   1
    16     8    15   1
    17    18     9   1
    18     9    26   1
    19    10    12   1
    20    20    10   1
    21    11    13   1
    22    11    16   2
    23    17    12   2
    24    24    14   2
    25    15    19   2
    26    18    23   1
    27    25    18   1
    28    22    21   2
    29    24    22   1
    30    23    24   1
    31    25    27   1
    32    25    28   1
    33    25    30   1
    34     2    31   1
    35     3    32   1
    36     5    33   1
    37     9    34   1
    38     9    35   1
    39    10    36   1
    40    17    37   1
    41    18    38   1
    42    19    39   1
    43    20    40   1
    44    22    41   1
    45    23    42   1
    46    23    43   1
    47    26    44   1
    48    26    45   1
    49    26    46   1
    50    27    47   1
    51    27    48   1
    52    28    49   1
    53    28    50   1
    54    28    51   1
    55    29    52   1
    56    29    53   1
    57    29    54   1
    58    30    55   1
    59    30    56   1
    60    30    57   1
@<TRIPOS>SUBSTRUCTURE
     1  EML      1

