@<TRIPOS>MOLECULE
3myg_ligand_078
    57    60
SMALL
GAST_HUCK
****
This file was generated by PARSER (from files_GN.cpp)

@<TRIPOS>ATOM
      1 C1         -0.9724   35.6851   82.1045 C.2         1 EML       0.0195
      2 N1          1.1896   40.8202   84.6165 N.pl3       1 EML      -0.2184
      3 O1         -4.4229   44.4579   80.5985 O.3         1 EML      -0.3892
      4 S1          0.6774   43.1910   85.4957 S.3         1 EML       0.0206
      5 C2          1.3105   36.7431   83.9722 C.2         1 EML       0.0730
      6 N2         -0.7009   39.2220   82.5639 N.2         1 EML      -0.3304
      7 C3          2.2091   37.4071   84.7359 C.2         1 EML       0.0276
      8 N3          0.3547   37.4372   83.3185 N.pl3       1 EML      -0.2136
      9 C4         -0.9726   45.4517   81.6520 C.3         1 EML      -0.0323
     10 N4         -1.6069   33.5772   82.1931 N.pl3       1 EML      -0.2209
     11 C5          1.1541   39.5171   84.2347 C.2         1 EML       0.1947
     12 N5         -1.7284   33.9392   80.9540 N.2         1 EML      -0.2182
     13 C6          0.2643   38.7946   83.3864 C.2         1 EML       0.1969
     14 N6         -0.5824   43.9938   84.8030 N.2         1 EML      -0.3061
     15 C7         -0.5938   36.9996   82.4584 C.2         1 EML       0.0797
     16 N7          2.0907   38.7449   84.8525 N.2         1 EML      -0.2843
     17 C8         -1.3623   35.2263   80.8496 C.2         1 EML       0.0048
     18 N8         -2.1547   45.3310   82.5977 N.4         1 EML       0.2558
     19 C9         -1.2251   38.1422   81.9751 C.2         1 EML      -0.0220
     20 C10        -1.1443   34.5890   82.9411 C.2         1 EML       0.0562
     21 C11         0.4118   41.8895   84.4328 C.2         1 EML       0.1479
     22 C12        -0.5687   42.1908   83.5789 C.2         1 EML      -0.0058
     23 C13        -2.3045   43.9298   83.1512 C.3         1 EML       0.0137
     24 C14        -1.1285   43.3861   83.8205 C.2         1 EML       0.0332
     25 C15        -3.4356   46.0974   82.2183 C.3         1 EML       0.0096
     26 C16        -0.7929   44.4418   80.4877 C.3         1 EML      -0.0244
     27 C17        -3.9897   45.8035   80.7811 C.3         1 EML       0.0892
     28 C18        -3.1448   47.6395   82.3184 C.3         1 EML      -0.0168
     29 C19         3.2719   36.7208   85.4432 C.3         1 EML      -0.0245
     30 C20        -4.6190   45.8527   83.2249 C.3         1 EML      -0.0168
     31 H1          1.9092   40.9955   85.2440 H           1 EML       0.2327
     32 H2         -3.6229   43.9070   80.6997 H           1 EML       0.2097
     33 H3          1.3785   35.7565   83.8623 H           1 EML       0.0922
     34 H4         -0.0670   45.3901   82.2607 H           1 EML       0.0812
     35 H5         -0.9303   46.4401   81.2034 H           1 EML       0.0812
     36 H6         -1.8302   32.6948   82.5323 H           1 EML       0.2577
     37 H7         -1.3700   35.7662   79.9818 H           1 EML       0.0660
     38 H8         -1.8366   45.8502   83.4202 H           1 EML       0.2059
     39 H9         -1.9967   38.1639   81.3095 H           1 EML       0.0468
     40 H10        -1.0119   34.5655   83.9546 H           1 EML       0.0974
     41 H11        -0.8522   41.6144   82.8339 H           1 EML       0.0280
     42 H12        -2.6508   43.2534   82.3694 H           1 EML       0.1036
     43 H13        -3.0607   43.9113   83.9324 H           1 EML       0.1036
     44 H14         0.1357   44.6643   79.9580 H           1 EML       0.0281
     45 H15        -1.6063   44.4944   79.7697 H           1 EML       0.0281
     46 H16        -0.7283   43.4232   80.8586 H           1 EML       0.0281
     47 H17        -4.8540   46.4388   80.5745 H           1 EML       0.0616
     48 H18        -3.2498   46.0456   80.0209 H           1 EML       0.0616
     49 H19        -4.0580   48.2310   82.2233 H           1 EML       0.0288
     50 H20        -2.4798   47.9882   81.5316 H           1 EML       0.0288
     51 H21        -2.6875   47.8795   83.2800 H           1 EML       0.0288
     52 H22         3.8969   37.4197   86.0049 H           1 EML       0.0384
     53 H23         3.9097   36.1896   84.7342 H           1 EML       0.0384
     54 H24         2.8474   36.0010   86.1462 H           1 EML       0.0384
     55 H25        -5.4738   46.4984   83.0109 H           1 EML       0.0288
     56 H26        -4.2952   46.0473   84.2497 H           1 EML       0.0288
     57 H27        -4.9913   44.8287   83.1673 H           1 EML       0.0288
@<TRIPOS>BOND
     1    15     1   1
     2     1    17   1
     3     1    20   2
     4     2    11   1
     5    21     2   1
     6    27     3   1
     7    14     4   1
     8    21     4   1
     9     7     5   2
    10     8     5   1
    11    13     6   2
    12     6    19   1
    13    16     7   1
    14     7    29   1
    15    13     8   1
    16     8    15   1
    17    18     9   1
    18     9    26   1
    19    10    12   1
    20    20    10   1
    21    11    13   1
    22    11    16   2
    23    17    12   2
    24    24    14   2
    25    15    19   2
    26    18    23   1
    27    25    18   1
    28    22    21   2
    29    24    22   1
    30    23    24   1
    31    25    27   1
    32    25    28   1
    33    25    30   1
    34     2    31   1
    35     3    32   1
    36     5    33   1
    37     9    34   1
    38     9    35   1
    39    10    36   1
    40    17    37   1
    41    18    38   1
    42    19    39   1
    43    20    40   1
    44    22    41   1
    45    23    42   1
    46    23    43   1
    47    26    44   1
    48    26    45   1
    49    26    46   1
    50    27    47   1
    51    27    48   1
    52    28    49   1
    53    28    50   1
    54    28    51   1
    55    29    52   1
    56    29    53   1
    57    29    54   1
    58    30    55   1
    59    30    56   1
    60    30    57   1
@<TRIPOS>SUBSTRUCTURE
     1  EML      1

