@<TRIPOS>MOLECULE
3myg_ligand_048
    57    60
SMALL
GAST_HUCK
****
This file was generated by PARSER (from files_GN.cpp)

@<TRIPOS>ATOM
      1 C1         -4.2814   30.3891   78.4433 C.2         1 EML       0.0195
      2 N1         -7.9808   26.1115   80.6722 N.pl3       1 EML      -0.2184
      3 O1         -7.1700   31.7528   85.4827 O.3         1 EML      -0.3892
      4 S1         -8.6066   24.5791   82.6417 S.3         1 EML       0.0206
      5 C2         -6.3308   28.2642   77.5813 C.2         1 EML       0.0730
      6 N2         -5.7640   28.4106   81.0200 N.2         1 EML      -0.3304
      7 C3         -7.2718   27.3172   77.3987 C.2         1 EML       0.0276
      8 N3         -5.8827   28.5355   78.8251 N.pl3       1 EML      -0.2136
      9 C4         -9.5391   28.4336   85.7476 C.3         1 EML      -0.0323
     10 N4         -3.3975   32.2625   77.7040 N.pl3       1 EML      -0.2209
     11 C5         -7.3603   26.9092   79.7725 C.2         1 EML       0.1947
     12 N5         -3.3618   31.4342   76.7083 N.2         1 EML      -0.2182
     13 C6         -6.3667   27.9112   79.9306 C.2         1 EML       0.1969
     14 N6         -8.3391   25.1743   84.1505 N.2         1 EML      -0.3061
     15 C7         -4.9846   29.4595   79.2253 C.2         1 EML       0.0797
     16 N7         -7.7416   26.6815   78.4827 N.2         1 EML      -0.2843
     17 C8         -3.8790   30.2656   77.1145 C.2         1 EML       0.0048
     18 N8         -8.0405   28.4282   85.5532 N.4         1 EML       0.2558
     19 C9         -4.9263   29.3727   80.6131 C.2         1 EML      -0.0220
     20 C10        -3.9336   31.6875   78.7914 C.2         1 EML       0.0562
     21 C11        -7.9525   26.0076   81.9949 C.2         1 EML       0.1479
     22 C12        -7.6148   26.8492   82.9682 C.2         1 EML      -0.0058
     23 C13        -7.5225   27.0014   85.4438 C.3         1 EML       0.0137
     24 C14        -7.8479   26.3531   84.1884 C.2         1 EML       0.0332
     25 C15        -7.1831   29.4067   86.3795 C.3         1 EML       0.0096
     26 C16       -10.1141   28.3781   87.1893 C.3         1 EML      -0.0244
     27 C17        -7.7516   30.8790   86.4619 C.3         1 EML       0.0892
     28 C18        -5.7429   29.5172   85.7267 C.3         1 EML      -0.0168
     29 C19        -7.7903   26.9953   76.0852 C.3         1 EML      -0.0245
     30 C20        -6.9315   28.8728   87.8449 C.3         1 EML      -0.0168
     31 H1         -8.5404   25.4372   80.2560 H           1 EML       0.2327
     32 H2         -7.6992   31.5808   84.6682 H           1 EML       0.2097
     33 H3         -5.9953   28.7613   76.7967 H           1 EML       0.0922
     34 H4         -9.9632   27.5660   85.2211 H           1 EML       0.0812
     35 H5         -9.9502   29.3054   85.2359 H           1 EML       0.0812
     36 H6         -3.0984   33.1889   77.6670 H           1 EML       0.2577
     37 H7         -3.9702   29.4402   76.5289 H           1 EML       0.0660
     38 H8         -7.9322   28.7908   84.6014 H           1 EML       0.2059
     39 H9         -4.3493   29.9382   81.2371 H           1 EML       0.0468
     40 H10        -4.1214   32.1472   79.6854 H           1 EML       0.0974
     41 H11        -7.3536   27.7870   82.8216 H           1 EML       0.0280
     42 H12        -7.8987   26.4096   86.2777 H           1 EML       0.1036
     43 H13        -6.4373   26.9514   85.5179 H           1 EML       0.1036
     44 H14       -11.1708   28.0958   87.1537 H           1 EML       0.0281
     45 H15       -10.0413   29.3502   87.6677 H           1 EML       0.0281
     46 H16        -9.5979   27.6323   87.7987 H           1 EML       0.0281
     47 H17        -8.8545   30.8862   86.3334 H           1 EML       0.0616
     48 H18        -7.5390   31.3092   87.4533 H           1 EML       0.0616
     49 H19        -5.1797   30.3507   86.1502 H           1 EML       0.0288
     50 H20        -5.8158   29.6739   84.6515 H           1 EML       0.0288
     51 H21        -5.1250   28.6228   85.8839 H           1 EML       0.0288
     52 H22        -8.5337   26.1962   76.1388 H           1 EML       0.0384
     53 H23        -6.9810   26.6656   75.4306 H           1 EML       0.0384
     54 H24        -8.2663   27.8748   75.6473 H           1 EML       0.0384
     55 H25        -6.2392   29.5191   88.3809 H           1 EML       0.0288
     56 H26        -6.4961   27.8669   87.8573 H           1 EML       0.0288
     57 H27        -7.8595   28.8358   88.4082 H           1 EML       0.0288
@<TRIPOS>BOND
     1    15     1   1
     2     1    17   1
     3     1    20   2
     4     2    11   1
     5    21     2   1
     6    27     3   1
     7    14     4   1
     8    21     4   1
     9     7     5   2
    10     8     5   1
    11    13     6   2
    12     6    19   1
    13    16     7   1
    14     7    29   1
    15    13     8   1
    16     8    15   1
    17    18     9   1
    18     9    26   1
    19    10    12   1
    20    20    10   1
    21    11    13   1
    22    11    16   2
    23    17    12   2
    24    24    14   2
    25    15    19   2
    26    18    23   1
    27    25    18   1
    28    22    21   2
    29    24    22   1
    30    23    24   1
    31    25    27   1
    32    25    28   1
    33    25    30   1
    34     2    31   1
    35     3    32   1
    36     5    33   1
    37     9    34   1
    38     9    35   1
    39    10    36   1
    40    17    37   1
    41    18    38   1
    42    19    39   1
    43    20    40   1
    44    22    41   1
    45    23    42   1
    46    23    43   1
    47    26    44   1
    48    26    45   1
    49    26    46   1
    50    27    47   1
    51    27    48   1
    52    28    49   1
    53    28    50   1
    54    28    51   1
    55    29    52   1
    56    29    53   1
    57    29    54   1
    58    30    55   1
    59    30    56   1
    60    30    57   1
@<TRIPOS>SUBSTRUCTURE
     1  EML      1

