@<TRIPOS>MOLECULE
3myg_ligand_009
    57    60
SMALL
GAST_HUCK
****
This file was generated by PARSER (from files_GN.cpp)

@<TRIPOS>ATOM
      1 C1         -5.8569   31.7699   84.6917 C.2         1 EML       0.0195
      2 N1         -2.7977   31.4257   79.4472 N.pl3       1 EML      -0.2184
      3 O1         -9.7622   26.8018   74.4170 O.3         1 EML      -0.3892
      4 S1         -3.4944   31.1992   76.9531 S.3         1 EML       0.0206
      5 C2         -3.3855   33.0005   83.2083 C.2         1 EML       0.0730
      6 N2         -4.8394   30.2520   81.6240 N.2         1 EML      -0.3304
      7 C3         -2.3887   33.4000   82.3894 C.2         1 EML       0.0276
      8 N3         -4.1719   31.9634   82.8478 N.pl3       1 EML      -0.2136
      9 C4         -5.4551   27.1631   75.3720 C.3         1 EML      -0.0323
     10 N4         -6.9216   32.9907   86.1860 N.pl3       1 EML      -0.2209
     11 C5         -3.0085   31.7471   80.7505 C.2         1 EML       0.1947
     12 N5         -7.1140   31.7546   86.5263 N.2         1 EML      -0.2182
     13 C6         -3.9957   31.2948   81.6766 C.2         1 EML       0.1969
     14 N6         -4.6154   30.0359   76.6266 N.2         1 EML      -0.3061
     15 C7         -5.1847   31.3665   83.5151 C.2         1 EML       0.0797
     16 N7         -2.2484   32.7865   81.1977 N.2         1 EML      -0.2843
     17 C8         -6.4834   30.9673   85.6396 C.2         1 EML       0.0048
     18 N8         -6.4958   27.9084   76.1853 N.4         1 EML       0.2558
     19 C9         -5.5603   30.2661   82.7494 C.2         1 EML      -0.0220
     20 C10        -6.1657   33.0669   85.0827 C.2         1 EML       0.0562
     21 C11        -3.5101   30.7017   78.5823 C.2         1 EML       0.1479
     22 C12        -4.2497   29.6018   78.7238 C.2         1 EML      -0.0058
     23 C13        -5.9657   28.2757   77.5598 C.3         1 EML       0.0137
     24 C14        -4.9052   29.2676   77.6056 C.2         1 EML       0.0332
     25 C15        -7.9518   27.4081   76.1389 C.3         1 EML       0.0096
     26 C16        -5.3440   25.6202   75.5025 C.3         1 EML      -0.0244
     27 C17        -8.3585   26.8057   74.7332 C.3         1 EML       0.0892
     28 C18        -8.8878   28.6487   76.3586 C.3         1 EML      -0.0168
     29 C19        -1.4960   34.4825   82.7476 C.3         1 EML      -0.0245
     30 C20        -8.2493   26.3402   77.2484 C.3         1 EML      -0.0168
     31 H1         -2.1077   31.9656   79.0258 H           1 EML       0.2327
     32 H2         -9.9423   25.9022   74.0611 H           1 EML       0.2097
     33 H3         -3.5069   33.4345   84.0923 H           1 EML       0.0922
     34 H4         -4.4683   27.5647   75.6194 H           1 EML       0.0812
     35 H5         -5.5889   27.4026   74.3150 H           1 EML       0.0812
     36 H6         -7.2929   33.7543   86.6550 H           1 EML       0.2577
     37 H7         -6.4836   29.9464   85.6627 H           1 EML       0.0660
     38 H8         -6.5513   28.8067   75.7007 H           1 EML       0.2059
     39 H9         -6.3033   29.6023   82.9672 H           1 EML       0.0468
     40 H10        -5.9229   33.9296   84.5914 H           1 EML       0.0974
     41 H11        -4.2765   29.0559   79.5442 H           1 EML       0.0280
     42 H12        -5.6384   27.3787   78.0765 H           1 EML       0.1036
     43 H13        -6.7532   28.6981   78.1794 H           1 EML       0.1036
     44 H14        -4.3987   25.2787   75.0613 H           1 EML       0.0281
     45 H15        -6.1655   25.1345   74.9657 H           1 EML       0.0281
     46 H16        -5.3763   25.3030   76.5480 H           1 EML       0.0281
     47 H17        -7.8715   27.3750   73.9317 H           1 EML       0.0616
     48 H18        -8.0054   25.7660   74.6662 H           1 EML       0.0616
     49 H19        -9.9384   28.3608   76.3266 H           1 EML       0.0288
     50 H20        -8.7096   29.3933   75.5832 H           1 EML       0.0288
     51 H21        -8.7328   29.1318   77.3208 H           1 EML       0.0288
     52 H22        -0.7346   34.6442   81.9807 H           1 EML       0.0384
     53 H23        -0.9880   34.2558   83.6878 H           1 EML       0.0384
     54 H24        -2.0622   35.4110   82.8679 H           1 EML       0.0384
     55 H25        -9.2507   25.9299   77.1406 H           1 EML       0.0288
     56 H26        -8.1860   26.7641   78.2481 H           1 EML       0.0288
     57 H27        -7.5451   25.5155   77.1937 H           1 EML       0.0288
@<TRIPOS>BOND
     1    15     1   1
     2     1    17   1
     3     1    20   2
     4     2    11   1
     5    21     2   1
     6    27     3   1
     7    14     4   1
     8    21     4   1
     9     7     5   2
    10     8     5   1
    11    13     6   2
    12     6    19   1
    13    16     7   1
    14     7    29   1
    15    13     8   1
    16     8    15   1
    17    18     9   1
    18     9    26   1
    19    10    12   1
    20    20    10   1
    21    11    13   1
    22    11    16   2
    23    17    12   2
    24    24    14   2
    25    15    19   2
    26    18    23   1
    27    25    18   1
    28    22    21   2
    29    24    22   1
    30    23    24   1
    31    25    27   1
    32    25    28   1
    33    25    30   1
    34     2    31   1
    35     3    32   1
    36     5    33   1
    37     9    34   1
    38     9    35   1
    39    10    36   1
    40    17    37   1
    41    18    38   1
    42    19    39   1
    43    20    40   1
    44    22    41   1
    45    23    42   1
    46    23    43   1
    47    26    44   1
    48    26    45   1
    49    26    46   1
    50    27    47   1
    51    27    48   1
    52    28    49   1
    53    28    50   1
    54    28    51   1
    55    29    52   1
    56    29    53   1
    57    29    54   1
    58    30    55   1
    59    30    56   1
    60    30    57   1
@<TRIPOS>SUBSTRUCTURE
     1  EML      1

