@<TRIPOS>MOLECULE
3myg_ligand_058
    57    60
SMALL
GAST_HUCK
****
This file was generated by PARSER (from files_GN.cpp)

@<TRIPOS>ATOM
      1 C1         -4.1949   31.3624   78.7394 C.2         1 EML       0.0195
      2 N1         -4.3158   31.1311   84.8914 N.pl3       1 EML      -0.2184
      3 O1          1.4185   36.4658   86.2922 O.3         1 EML      -0.3892
      4 S1         -3.0590   31.4754   87.1238 S.3         1 EML       0.0206
      5 C2         -5.6593   29.9623   81.1880 C.2         1 EML       0.0730
      6 N2         -3.1340   32.1723   82.0847 N.2         1 EML      -0.3304
      7 C3         -6.2135   29.5596   82.3489 C.2         1 EML       0.0276
      8 N3         -4.6691   30.8805   81.1864 N.pl3       1 EML      -0.2136
      9 C4         -2.2880   36.2235   86.0398 C.3         1 EML      -0.0323
     10 N4         -5.0036   31.0015   76.7022 N.pl3       1 EML      -0.2209
     11 C5         -4.6844   30.9131   83.6055 C.2         1 EML       0.1947
     12 N5         -3.8183   31.4933   76.5360 N.2         1 EML      -0.2182
     13 C6         -4.1420   31.3441   82.3546 C.2         1 EML       0.1969
     14 N6         -1.9051   32.6517   87.1389 N.2         1 EML      -0.3061
     15 C7         -4.0089   31.4654   80.1530 C.2         1 EML       0.0797
     16 N7         -5.7173   30.0403   83.4969 N.2         1 EML      -0.2843
     17 C8         -3.2857   31.7318   77.7444 C.2         1 EML       0.0048
     18 N8         -1.2395   35.5457   85.1751 N.4         1 EML       0.2558
     19 C9         -3.0357   32.2680   80.7519 C.2         1 EML      -0.0220
     20 C10        -5.2941   30.9118   78.0061 C.2         1 EML       0.0562
     21 C11        -3.3378   31.8146   85.4783 C.2         1 EML       0.1479
     22 C12        -2.5502   32.7983   85.0625 C.2         1 EML      -0.0058
     23 C13        -0.7229   34.2727   85.8168 C.3         1 EML       0.0137
     24 C14        -1.7396   33.2528   86.0239 C.2         1 EML       0.0332
     25 C15        -0.2310   36.4363   84.4307 C.3         1 EML       0.0096
     26 C16        -1.9526   36.5797   87.5098 C.3         1 EML      -0.0244
     27 C17         0.7231   37.2714   85.3473 C.3         1 EML       0.0892
     28 C18        -1.0089   37.4439   83.5087 C.3         1 EML      -0.0168
     29 C19        -7.2898   28.5960   82.4349 C.3         1 EML      -0.0245
     30 C20         0.6647   35.5934   83.4467 C.3         1 EML      -0.0168
     31 H1         -4.8358   30.6080   85.5231 H           1 EML       0.2327
     32 H2          1.9871   37.0912   86.7891 H           1 EML       0.2097
     33 H3         -5.9498   29.5466   80.3420 H           1 EML       0.0922
     34 H4         -3.1622   35.5685   86.0752 H           1 EML       0.0812
     35 H5         -2.6638   37.1281   85.5725 H           1 EML       0.0812
     36 H6         -5.6013   30.7517   75.9800 H           1 EML       0.2577
     37 H7         -2.3548   32.1218   77.8870 H           1 EML       0.0660
     38 H8         -1.7956   35.1878   84.3960 H           1 EML       0.2059
     39 H9         -2.3657   32.8678   80.2781 H           1 EML       0.0468
     40 H10        -6.1988   30.6023   78.3633 H           1 EML       0.0974
     41 H11        -2.6323   33.2492   84.1899 H           1 EML       0.0280
     42 H12        -0.2132   34.4931   86.7575 H           1 EML       0.1036
     43 H13         0.0089   33.7803   85.1815 H           1 EML       0.1036
     44 H14        -2.7958   37.1094   87.9560 H           1 EML       0.0281
     45 H15        -1.0771   37.2200   87.5874 H           1 EML       0.0281
     46 H16        -1.7825   35.6766   88.0931 H           1 EML       0.0281
     47 H17         1.4716   37.7878   84.7394 H           1 EML       0.0616
     48 H18         0.1673   38.0392   85.8851 H           1 EML       0.0616
     49 H19        -0.3366   37.9716   82.8308 H           1 EML       0.0288
     50 H20        -1.5115   38.2184   84.0841 H           1 EML       0.0288
     51 H21        -1.7560   36.9138   82.9141 H           1 EML       0.0288
     52 H22        -6.9687   27.7381   83.0291 H           1 EML       0.0384
     53 H23        -7.5968   28.2356   81.4508 H           1 EML       0.0384
     54 H24        -8.1542   29.0578   82.9160 H           1 EML       0.0384
     55 H25         1.2046   36.2288   82.7418 H           1 EML       0.0288
     56 H26         0.0505   34.8958   82.8707 H           1 EML       0.0288
     57 H27         1.4251   35.0213   83.9835 H           1 EML       0.0288
@<TRIPOS>BOND
     1    15     1   1
     2     1    17   1
     3     1    20   2
     4     2    11   1
     5    21     2   1
     6    27     3   1
     7    14     4   1
     8    21     4   1
     9     7     5   2
    10     8     5   1
    11    13     6   2
    12     6    19   1
    13    16     7   1
    14     7    29   1
    15    13     8   1
    16     8    15   1
    17    18     9   1
    18     9    26   1
    19    10    12   1
    20    20    10   1
    21    11    13   1
    22    11    16   2
    23    17    12   2
    24    24    14   2
    25    15    19   2
    26    18    23   1
    27    25    18   1
    28    22    21   2
    29    24    22   1
    30    23    24   1
    31    25    27   1
    32    25    28   1
    33    25    30   1
    34     2    31   1
    35     3    32   1
    36     5    33   1
    37     9    34   1
    38     9    35   1
    39    10    36   1
    40    17    37   1
    41    18    38   1
    42    19    39   1
    43    20    40   1
    44    22    41   1
    45    23    42   1
    46    23    43   1
    47    26    44   1
    48    26    45   1
    49    26    46   1
    50    27    47   1
    51    27    48   1
    52    28    49   1
    53    28    50   1
    54    28    51   1
    55    29    52   1
    56    29    53   1
    57    29    54   1
    58    30    55   1
    59    30    56   1
    60    30    57   1
@<TRIPOS>SUBSTRUCTURE
     1  EML      1

