@<TRIPOS>MOLECULE
3myg_ligand_019
    57    60
SMALL
GAST_HUCK
****
This file was generated by PARSER (from files_GN.cpp)

@<TRIPOS>ATOM
      1 C1         -5.3658   41.9464   85.8296 C.2         1 EML       0.0195
      2 N1         -2.1577   37.4454   83.2360 N.pl3       1 EML      -0.2184
      3 O1         -3.5545   33.0207   79.3953 O.3         1 EML      -0.3892
      4 S1         -2.6944   36.2980   85.6473 S.3         1 EML       0.0206
      5 C2         -3.0948   41.4366   83.6065 C.2         1 EML       0.0730
      6 N2         -4.5130   38.5629   84.9754 N.2         1 EML      -0.3304
      7 C3         -2.1615   40.9862   82.7376 C.2         1 EML       0.0276
      8 N3         -3.8319   40.5671   84.3377 N.pl3       1 EML      -0.2136
      9 C4         -5.0227   32.5665   83.5367 C.3         1 EML      -0.0323
     10 N4         -6.4409   43.2751   87.2427 N.pl3       1 EML      -0.2209
     11 C5         -2.5855   38.7225   83.3936 C.2         1 EML       0.1947
     12 N5         -5.8793   44.0537   86.3769 N.2         1 EML      -0.2182
     13 C6         -3.6241   39.2269   84.2311 C.2         1 EML       0.1969
     14 N6         -2.8359   34.6551   85.5250 N.2         1 EML      -0.3061
     15 C7         -4.8250   40.7642   85.2436 C.2         1 EML       0.0797
     16 N7         -1.9375   39.6610   82.6567 N.2         1 EML      -0.2843
     17 C8         -5.2125   43.2923   85.4956 C.2         1 EML       0.0048
     18 N8         -3.6152   32.1403   83.1728 N.4         1 EML       0.2558
     19 C9         -5.2486   39.4825   85.6026 C.2         1 EML      -0.0220
     20 C10        -6.1727   41.9921   86.9624 C.2         1 EML       0.0562
     21 C11        -2.4136   36.3600   83.9669 C.2         1 EML       0.1479
     22 C12        -2.2366   35.1288   83.4875 C.2         1 EML      -0.0058
     23 C13        -2.5867   32.7448   84.1114 C.3         1 EML       0.0137
     24 C14        -2.5693   34.1767   84.3639 C.2         1 EML       0.0332
     25 C15        -3.3231   32.0099   81.6655 C.3         1 EML       0.0096
     26 C16        -5.5464   31.9551   84.8572 C.3         1 EML      -0.0244
     27 C17        -3.8244   33.2120   80.7867 C.3         1 EML       0.0892
     28 C18        -4.0379   30.7011   81.1668 C.3         1 EML      -0.0168
     29 C19        -1.3800   41.8912   81.9215 C.3         1 EML      -0.0245
     30 C20        -1.7974   31.7956   81.3548 C.3         1 EML      -0.0168
     31 H1         -1.5602   37.3026   82.4820 H           1 EML       0.2327
     32 H2         -3.6509   33.9017   78.9702 H           1 EML       0.2097
     33 H3         -3.2341   42.4127   83.6865 H           1 EML       0.0922
     34 H4         -5.7408   32.2608   82.7785 H           1 EML       0.0812
     35 H5         -5.0931   33.6564   83.5968 H           1 EML       0.0812
     36 H6         -6.9724   43.5727   87.9984 H           1 EML       0.2577
     37 H7         -4.7030   43.6834   84.7062 H           1 EML       0.0660
     38 H8         -3.5812   31.1583   83.4706 H           1 EML       0.2059
     39 H9         -5.9889   39.2493   86.2704 H           1 EML       0.0468
     40 H10        -6.5037   41.2038   87.5200 H           1 EML       0.0974
     41 H11        -1.8760   34.9466   82.5843 H           1 EML       0.0280
     42 H12        -1.5763   32.4610   83.8313 H           1 EML       0.1036
     43 H13        -2.7259   32.2381   85.0758 H           1 EML       0.1036
     44 H14        -6.5836   32.2603   85.0211 H           1 EML       0.0281
     45 H15        -4.9563   32.2923   85.7096 H           1 EML       0.0281
     46 H16        -5.5064   30.8640   84.8007 H           1 EML       0.0281
     47 H17        -4.9009   33.3596   80.8902 H           1 EML       0.0616
     48 H18        -3.3285   34.1280   81.0955 H           1 EML       0.0616
     49 H19        -3.8089   30.4883   80.1216 H           1 EML       0.0288
     50 H20        -5.1211   30.7704   81.2436 H           1 EML       0.0288
     51 H21        -3.7219   29.8390   81.7564 H           1 EML       0.0288
     52 H22        -0.6457   41.3548   81.3166 H           1 EML       0.0384
     53 H23        -0.8463   42.6016   82.5541 H           1 EML       0.0384
     54 H24        -2.0422   42.4457   81.2461 H           1 EML       0.0384
     55 H25        -1.6353   31.4961   80.3173 H           1 EML       0.0288
     56 H26        -1.3800   31.0161   81.9961 H           1 EML       0.0288
     57 H27        -1.2292   32.7148   81.5180 H           1 EML       0.0288
@<TRIPOS>BOND
     1    15     1   1
     2     1    17   1
     3     1    20   2
     4     2    11   1
     5    21     2   1
     6    27     3   1
     7    14     4   1
     8    21     4   1
     9     7     5   2
    10     8     5   1
    11    13     6   2
    12     6    19   1
    13    16     7   1
    14     7    29   1
    15    13     8   1
    16     8    15   1
    17    18     9   1
    18     9    26   1
    19    10    12   1
    20    20    10   1
    21    11    13   1
    22    11    16   2
    23    17    12   2
    24    24    14   2
    25    15    19   2
    26    18    23   1
    27    25    18   1
    28    22    21   2
    29    24    22   1
    30    23    24   1
    31    25    27   1
    32    25    28   1
    33    25    30   1
    34     2    31   1
    35     3    32   1
    36     5    33   1
    37     9    34   1
    38     9    35   1
    39    10    36   1
    40    17    37   1
    41    18    38   1
    42    19    39   1
    43    20    40   1
    44    22    41   1
    45    23    42   1
    46    23    43   1
    47    26    44   1
    48    26    45   1
    49    26    46   1
    50    27    47   1
    51    27    48   1
    52    28    49   1
    53    28    50   1
    54    28    51   1
    55    29    52   1
    56    29    53   1
    57    29    54   1
    58    30    55   1
    59    30    56   1
    60    30    57   1
@<TRIPOS>SUBSTRUCTURE
     1  EML      1

