@<TRIPOS>MOLECULE
3myg_ligand_033
    57    60
SMALL
GAST_HUCK
****
This file was generated by PARSER (from files_GN.cpp)

@<TRIPOS>ATOM
      1 C1          2.7531   39.2397   90.0435 C.2         1 EML       0.0195
      2 N1         -0.6809   35.3381   87.0945 N.pl3       1 EML      -0.2184
      3 O1         -1.6595   31.6083   83.0018 O.3         1 EML      -0.3892
      4 S1         -2.1675   33.3231   86.3208 S.3         1 EML       0.0206
      5 C2          1.1456   39.0303   87.3950 C.2         1 EML       0.0730
      6 N2          1.0819   36.1353   89.3611 N.2         1 EML      -0.3304
      7 C3          0.4146   38.7255   86.2993 C.2         1 EML       0.0276
      8 N3          1.2862   38.1157   88.3819 N.pl3       1 EML      -0.2136
      9 C4         -0.8067   34.2504   81.6034 C.3         1 EML      -0.0323
     10 N4          3.4028   41.2559   90.6334 N.pl3       1 EML      -0.2209
     11 C5         -0.0740   36.5465   87.1835 C.2         1 EML       0.1947
     12 N5          4.3595   40.4501   90.9793 N.2         1 EML      -0.2182
     13 C6          0.7244   36.8827   88.3048 C.2         1 EML       0.1969
     14 N6         -2.7729   33.4477   84.7916 N.2         1 EML      -0.3061
     15 C7          2.0053   38.1610   89.5238 C.2         1 EML       0.0797
     16 N7         -0.1760   37.5169   86.2357 N.2         1 EML      -0.2843
     17 C8          4.0027   39.1990   90.6474 C.2         1 EML       0.0048
     18 N8         -2.3163   34.0862   81.6244 N.4         1 EML       0.2558
     19 C9          1.8784   36.9049   90.1156 C.2         1 EML      -0.0220
     20 C10         2.3973   40.5814   90.0612 C.2         1 EML       0.0562
     21 C11        -1.4428   34.8440   86.1144 C.2         1 EML       0.1479
     22 C12        -1.7224   35.3361   84.9076 C.2         1 EML      -0.0058
     23 C13        -2.9380   34.8110   82.8062 C.3         1 EML       0.0137
     24 C14        -2.4721   34.5173   84.1623 C.2         1 EML       0.0332
     25 C15        -2.9064   32.7416   81.1787 C.3         1 EML       0.0096
     26 C16        -0.3842   35.4042   80.6675 C.3         1 EML      -0.0244
     27 C17        -2.9007   31.6570   82.3016 C.3         1 EML       0.0892
     28 C18        -2.1586   32.1696   79.9156 C.3         1 EML      -0.0168
     29 C19         0.2611   39.6476   85.1939 C.3         1 EML      -0.0245
     30 C20        -4.3913   32.9331   80.6974 C.3         1 EML      -0.0168
     31 H1         -0.5491   34.7442   87.8539 H           1 EML       0.2327
     32 H2         -1.7687   30.8724   83.6352 H           1 EML       0.2097
     33 H3          1.6134   39.9036   87.4519 H           1 EML       0.0922
     34 H4         -0.2832   33.3553   81.2773 H           1 EML       0.0812
     35 H5         -0.3836   34.4657   82.5848 H           1 EML       0.0812
     36 H6          3.4138   42.2161   90.7712 H           1 EML       0.2577
     37 H7          4.5806   38.3675   90.7869 H           1 EML       0.0660
     38 H8         -2.6045   34.6785   80.8412 H           1 EML       0.2059
     39 H9          2.3029   36.6104   90.9962 H           1 EML       0.0468
     40 H10         1.5241   40.9889   89.7242 H           1 EML       0.0974
     41 H11        -1.3559   36.1840   84.5478 H           1 EML       0.0280
     42 H12        -4.0199   34.7007   82.8210 H           1 EML       0.1036
     43 H13        -2.7828   35.8773   82.6129 H           1 EML       0.1036
     44 H14         0.7043   35.5032   80.6668 H           1 EML       0.0281
     45 H15        -0.8216   36.3451   81.0071 H           1 EML       0.0281
     46 H16        -0.7199   35.2055   79.6475 H           1 EML       0.0281
     47 H17        -3.6886   31.8571   83.0262 H           1 EML       0.0616
     48 H18        -3.1078   30.6672   81.8818 H           1 EML       0.0616
     49 H19        -2.7145   31.3549   79.4436 H           1 EML       0.0288
     50 H20        -1.1822   31.7584   80.1651 H           1 EML       0.0288
     51 H21        -2.0178   32.9548   79.1701 H           1 EML       0.0288
     52 H22        -0.3439   39.2101   84.3958 H           1 EML       0.0384
     53 H23         1.2410   39.8987   84.7815 H           1 EML       0.0384
     54 H24        -0.2292   40.5618   85.5360 H           1 EML       0.0384
     55 H25        -4.7981   32.0064   80.2840 H           1 EML       0.0288
     56 H26        -4.4446   33.6983   79.9197 H           1 EML       0.0288
     57 H27        -5.0603   33.2207   81.5076 H           1 EML       0.0288
@<TRIPOS>BOND
     1    15     1   1
     2     1    17   1
     3     1    20   2
     4     2    11   1
     5    21     2   1
     6    27     3   1
     7    14     4   1
     8    21     4   1
     9     7     5   2
    10     8     5   1
    11    13     6   2
    12     6    19   1
    13    16     7   1
    14     7    29   1
    15    13     8   1
    16     8    15   1
    17    18     9   1
    18     9    26   1
    19    10    12   1
    20    20    10   1
    21    11    13   1
    22    11    16   2
    23    17    12   2
    24    24    14   2
    25    15    19   2
    26    18    23   1
    27    25    18   1
    28    22    21   2
    29    24    22   1
    30    23    24   1
    31    25    27   1
    32    25    28   1
    33    25    30   1
    34     2    31   1
    35     3    32   1
    36     5    33   1
    37     9    34   1
    38     9    35   1
    39    10    36   1
    40    17    37   1
    41    18    38   1
    42    19    39   1
    43    20    40   1
    44    22    41   1
    45    23    42   1
    46    23    43   1
    47    26    44   1
    48    26    45   1
    49    26    46   1
    50    27    47   1
    51    27    48   1
    52    28    49   1
    53    28    50   1
    54    28    51   1
    55    29    52   1
    56    29    53   1
    57    29    54   1
    58    30    55   1
    59    30    56   1
    60    30    57   1
@<TRIPOS>SUBSTRUCTURE
     1  EML      1

