@<TRIPOS>MOLECULE
3myg_ligand_055
    57    60
SMALL
GAST_HUCK
****
This file was generated by PARSER (from files_GN.cpp)

@<TRIPOS>ATOM
      1 C1         -4.0164   30.4531   78.4870 C.2         1 EML       0.0195
      2 N1         -6.0874   29.2195   84.0926 N.pl3       1 EML      -0.2184
      3 O1        -11.5153   28.1339   81.4188 O.3         1 EML      -0.3892
      4 S1         -6.9795   27.3381   85.6518 S.3         1 EML       0.0206
      5 C2         -4.0817   31.6041   81.3948 C.2         1 EML       0.0730
      6 N2         -5.5508   28.4590   81.0309 N.2         1 EML      -0.3304
      7 C3         -4.2184   31.9137   82.7017 C.2         1 EML       0.0276
      8 N3         -4.5987   30.4484   80.9213 N.pl3       1 EML      -0.2136
      9 C4        -10.0926   25.0938   80.7966 C.3         1 EML      -0.0323
     10 N4         -3.0390   30.6566   76.5226 N.pl3       1 EML      -0.2209
     11 C5         -5.4582   29.8913   83.0977 C.2         1 EML       0.1947
     12 N5         -3.5008   31.8282   76.8184 N.2         1 EML      -0.2182
     13 C6         -5.2457   29.5630   81.7273 C.2         1 EML       0.1969
     14 N6         -7.8336   26.1370   84.9151 N.2         1 EML      -0.3061
     15 C7         -4.5383   29.9116   79.6828 C.2         1 EML       0.0797
     16 N7         -4.8994   31.0670   83.4948 N.2         1 EML      -0.2843
     17 C8         -4.1005   31.7603   78.0189 C.2         1 EML       0.0048
     18 N8         -9.9080   25.8341   82.1055 N.4         1 EML       0.2558
     19 C9         -5.1311   28.6547   79.7752 C.2         1 EML      -0.0220
     20 C10        -3.3347   29.7732   77.4853 C.2         1 EML       0.0562
     21 C11        -6.7766   28.0785   84.1326 C.2         1 EML       0.1479
     22 C12        -7.4292   27.4027   83.1907 C.2         1 EML      -0.0058
     23 C13        -8.7005   25.2994   82.8511 C.3         1 EML       0.0137
     24 C14        -8.0049   26.2886   83.6574 C.2         1 EML       0.0332
     25 C15       -11.1727   26.1791   82.9125 C.3         1 EML       0.0096
     26 C16       -10.0697   23.5406   80.7866 C.3         1 EML      -0.0244
     27 C17       -12.1700   27.0293   82.0392 C.3         1 EML       0.0892
     28 C18       -10.8445   27.0716   84.1642 C.3         1 EML      -0.0168
     29 C19        -3.6398   33.1109   83.2769 C.3         1 EML      -0.0245
     30 C20       -11.9394   24.9210   83.4392 C.3         1 EML      -0.0168
     31 H1         -5.9777   29.6372   84.9628 H           1 EML       0.2327
     32 H2        -12.1567   28.4617   80.7543 H           1 EML       0.2097
     33 H3         -3.5630   32.2049   80.7970 H           1 EML       0.0922
     34 H4         -9.2855   25.4203   80.1329 H           1 EML       0.0812
     35 H5        -11.0023   25.4092   80.2955 H           1 EML       0.0812
     36 H6         -2.5522   30.4507   75.7103 H           1 EML       0.2577
     37 H7         -4.5696   32.5412   78.4792 H           1 EML       0.0660
     38 H8         -9.5965   26.7575   81.7934 H           1 EML       0.2059
     39 H9         -5.2633   27.9928   79.0108 H           1 EML       0.0468
     40 H10        -3.0767   28.7866   77.4826 H           1 EML       0.0974
     41 H11        -7.5504   27.7181   82.2621 H           1 EML       0.0280
     42 H12        -7.9284   24.9337   82.1680 H           1 EML       0.1036
     43 H13        -8.9906   24.4384   83.4605 H           1 EML       0.1036
     44 H14       -10.2754   23.1848   79.7761 H           1 EML       0.0281
     45 H15       -10.8168   23.1178   81.4501 H           1 EML       0.0281
     46 H16        -9.0941   23.1549   81.0805 H           1 EML       0.0281
     47 H17       -12.6370   26.4295   81.2585 H           1 EML       0.0616
     48 H18       -12.9945   27.4260   82.6396 H           1 EML       0.0616
     49 H19       -11.7593   27.4483   84.6334 H           1 EML       0.0288
     50 H20       -10.2397   27.9329   83.8832 H           1 EML       0.0288
     51 H21       -10.3113   26.5054   84.9294 H           1 EML       0.0288
     52 H22        -3.8665   33.1880   84.3425 H           1 EML       0.0384
     53 H23        -4.0388   33.9955   82.7763 H           1 EML       0.0384
     54 H24        -2.5546   33.0935   83.1588 H           1 EML       0.0384
     55 H25       -12.4180   24.3816   82.6232 H           1 EML       0.0288
     56 H26       -12.7296   25.2023   84.1381 H           1 EML       0.0288
     57 H27       -11.2623   24.2410   83.9568 H           1 EML       0.0288
@<TRIPOS>BOND
     1    15     1   1
     2     1    17   1
     3     1    20   2
     4     2    11   1
     5    21     2   1
     6    27     3   1
     7    14     4   1
     8    21     4   1
     9     7     5   2
    10     8     5   1
    11    13     6   2
    12     6    19   1
    13    16     7   1
    14     7    29   1
    15    13     8   1
    16     8    15   1
    17    18     9   1
    18     9    26   1
    19    10    12   1
    20    20    10   1
    21    11    13   1
    22    11    16   2
    23    17    12   2
    24    24    14   2
    25    15    19   2
    26    18    23   1
    27    25    18   1
    28    22    21   2
    29    24    22   1
    30    23    24   1
    31    25    27   1
    32    25    28   1
    33    25    30   1
    34     2    31   1
    35     3    32   1
    36     5    33   1
    37     9    34   1
    38     9    35   1
    39    10    36   1
    40    17    37   1
    41    18    38   1
    42    19    39   1
    43    20    40   1
    44    22    41   1
    45    23    42   1
    46    23    43   1
    47    26    44   1
    48    26    45   1
    49    26    46   1
    50    27    47   1
    51    27    48   1
    52    28    49   1
    53    28    50   1
    54    28    51   1
    55    29    52   1
    56    29    53   1
    57    29    54   1
    58    30    55   1
    59    30    56   1
    60    30    57   1
@<TRIPOS>SUBSTRUCTURE
     1  EML      1

