@<TRIPOS>MOLECULE
3myg_ligand_050
    57    60
SMALL
GAST_HUCK
****
This file was generated by PARSER (from files_GN.cpp)

@<TRIPOS>ATOM
      1 C1         -3.8527   31.1117   78.4699 C.2         1 EML       0.0195
      2 N1         -2.7558   32.0669   84.2713 N.pl3       1 EML      -0.2184
      3 O1         -2.2054   36.2008   88.6922 O.3         1 EML      -0.3892
      4 S1         -1.0731   33.8739   85.4220 S.3         1 EML       0.0206
      5 C2         -2.3797   33.1978   80.3150 C.2         1 EML       0.0730
      6 N2         -3.8381   30.5014   82.0063 N.2         1 EML      -0.3304
      7 C3         -1.8197   33.9530   81.2821 C.2         1 EML       0.0276
      8 N3         -3.0579   32.0704   80.6388 N.pl3       1 EML      -0.2136
      9 C4         -2.9134   33.1380   91.2070 C.3         1 EML      -0.0323
     10 N4         -4.0779   30.4306   76.3867 N.pl3       1 EML      -0.2209
     11 C5         -2.6145   32.4444   82.9733 C.2         1 EML       0.1947
     12 N5         -4.2528   31.7134   76.3638 N.2         1 EML      -0.2182
     13 C6         -3.1736   31.6660   81.9310 C.2         1 EML       0.1969
     14 N6         -1.0663   33.6838   87.0699 N.2         1 EML      -0.3061
     15 C7         -3.6686   31.1442   79.8702 C.2         1 EML       0.0797
     16 N7         -1.9591   33.5655   82.5630 N.2         1 EML      -0.2843
     17 C8         -4.1341   32.1762   77.6192 C.2         1 EML       0.0048
     18 N8         -2.1726   33.6987   90.0078 N.4         1 EML       0.2558
     19 C9         -4.1377   30.1627   80.7447 C.2         1 EML      -0.0220
     20 C10        -3.8390   30.0032   77.6357 C.2         1 EML       0.0562
     21 C11        -2.2768   32.6614   85.3657 C.2         1 EML       0.1479
     22 C12        -2.6289   32.2771   86.5901 C.2         1 EML      -0.0058
     23 C13        -1.9922   32.5785   88.9826 C.3         1 EML       0.0137
     24 C14        -1.9549   32.9038   87.5676 C.2         1 EML       0.0332
     25 C15        -0.9980   34.6822   90.2813 C.3         1 EML       0.0096
     26 C16        -2.1428   32.1421   92.1143 C.3         1 EML      -0.0244
     27 C17        -0.9272   35.8267   89.1904 C.3         1 EML       0.0892
     28 C18         0.4057   33.9768   90.3215 C.3         1 EML      -0.0168
     29 C19        -1.0699   35.1580   80.9855 C.3         1 EML      -0.0245
     30 C20        -1.1173   35.4642   91.6455 C.3         1 EML      -0.0168
     31 H1         -3.2478   31.2436   84.4115 H           1 EML       0.2327
     32 H2         -2.6322   36.7006   89.4332 H           1 EML       0.2097
     33 H3         -2.2709   33.4556   79.3627 H           1 EML       0.0922
     34 H4         -3.8003   32.6122   90.8563 H           1 EML       0.0812
     35 H5         -3.3207   33.9320   91.8228 H           1 EML       0.0812
     36 H6         -4.1219   29.8597   75.6000 H           1 EML       0.2577
     37 H7         -4.2685   33.1558   77.8868 H           1 EML       0.0660
     38 H8         -2.8899   34.2880   89.5809 H           1 EML       0.2059
     39 H9         -4.6561   29.3215   80.4816 H           1 EML       0.0468
     40 H10        -3.6648   29.0380   77.9009 H           1 EML       0.0974
     41 H11        -3.2594   31.5344   86.7573 H           1 EML       0.0280
     42 H12        -2.8047   31.8590   89.0806 H           1 EML       0.1036
     43 H13        -1.0934   32.0103   89.2138 H           1 EML       0.1036
     44 H14        -2.7637   31.8572   92.9648 H           1 EML       0.0281
     45 H15        -1.2255   32.5740   92.5051 H           1 EML       0.0281
     46 H16        -1.8818   31.2354   91.5668 H           1 EML       0.0281
     47 H17        -0.4603   36.7372   89.5659 H           1 EML       0.0616
     48 H18        -0.3194   35.5531   88.3409 H           1 EML       0.0616
     49 H19         1.2028   34.6845   90.5559 H           1 EML       0.0288
     50 H20         0.6660   33.5264   89.3633 H           1 EML       0.0288
     51 H21         0.4238   33.1897   91.0748 H           1 EML       0.0288
     52 H22        -0.6964   35.6325   81.8970 H           1 EML       0.0384
     53 H23        -1.7098   35.8745   80.4651 H           1 EML       0.0384
     54 H24        -0.2136   34.9193   80.3487 H           1 EML       0.0384
     55 H25        -0.2839   36.1514   91.7992 H           1 EML       0.0288
     56 H26        -1.1089   34.8018   92.5057 H           1 EML       0.0288
     57 H27        -2.0369   36.0486   91.6671 H           1 EML       0.0288
@<TRIPOS>BOND
     1    15     1   1
     2     1    17   1
     3     1    20   2
     4     2    11   1
     5    21     2   1
     6    27     3   1
     7    14     4   1
     8    21     4   1
     9     7     5   2
    10     8     5   1
    11    13     6   2
    12     6    19   1
    13    16     7   1
    14     7    29   1
    15    13     8   1
    16     8    15   1
    17    18     9   1
    18     9    26   1
    19    10    12   1
    20    20    10   1
    21    11    13   1
    22    11    16   2
    23    17    12   2
    24    24    14   2
    25    15    19   2
    26    18    23   1
    27    25    18   1
    28    22    21   2
    29    24    22   1
    30    23    24   1
    31    25    27   1
    32    25    28   1
    33    25    30   1
    34     2    31   1
    35     3    32   1
    36     5    33   1
    37     9    34   1
    38     9    35   1
    39    10    36   1
    40    17    37   1
    41    18    38   1
    42    19    39   1
    43    20    40   1
    44    22    41   1
    45    23    42   1
    46    23    43   1
    47    26    44   1
    48    26    45   1
    49    26    46   1
    50    27    47   1
    51    27    48   1
    52    28    49   1
    53    28    50   1
    54    28    51   1
    55    29    52   1
    56    29    53   1
    57    29    54   1
    58    30    55   1
    59    30    56   1
    60    30    57   1
@<TRIPOS>SUBSTRUCTURE
     1  EML      1

