@<TRIPOS>MOLECULE
3myg_ligand_035
    57    60
SMALL
GAST_HUCK
****
This file was generated by PARSER (from files_GN.cpp)

@<TRIPOS>ATOM
      1 C1         -7.4875   21.8789   81.2262 C.2         1 EML       0.0195
      2 N1         -8.1107   26.2768   85.2696 N.pl3       1 EML      -0.2184
      3 O1         -8.5359   28.4962   93.7715 O.3         1 EML      -0.3892
      4 S1         -7.3101   28.8941   85.1717 S.3         1 EML       0.0206
      5 C2         -6.5724   24.9203   81.7005 C.2         1 EML       0.0730
      6 N2         -8.6129   23.5795   84.1992 N.2         1 EML      -0.3304
      7 C3         -6.3068   26.1773   82.1033 C.2         1 EML       0.0276
      8 N3         -7.3396   24.0927   82.4541 N.pl3       1 EML      -0.2136
      9 C4         -6.4624   28.9181   89.8826 C.3         1 EML      -0.0323
     10 N4         -6.6657   20.7893   79.4801 N.pl3       1 EML      -0.2209
     11 C5         -7.6037   25.8457   84.0895 C.2         1 EML       0.1947
     12 N5         -7.5768   20.0215   79.9790 N.2         1 EML      -0.2182
     13 C6         -7.8650   24.5295   83.6280 C.2         1 EML       0.1969
     14 N6         -7.6710   29.6874   86.5677 N.2         1 EML      -0.3061
     15 C7         -7.7517   22.8146   82.2701 C.2         1 EML       0.0797
     16 N7         -6.8222   26.5990   83.2724 N.2         1 EML      -0.2843
     17 C8         -8.1079   20.6440   81.0405 C.2         1 EML       0.0048
     18 N8         -7.9804   28.8954   89.9701 N.4         1 EML       0.2558
     19 C9         -8.5520   22.5242   83.3821 C.2         1 EML      -0.0220
     20 C10        -6.5592   21.9181   80.1855 C.2         1 EML       0.0562
     21 C11        -7.9886   27.4788   85.8448 C.2         1 EML       0.1479
     22 C12        -8.4426   27.7183   87.0709 C.2         1 EML      -0.0058
     23 C13        -8.6200   29.5436   88.7596 C.3         1 EML       0.0137
     24 C14        -8.2408   28.9833   87.4605 C.2         1 EML       0.0332
     25 C15        -8.5728   29.2836   91.3383 C.3         1 EML       0.0096
     26 C16        -5.8591   27.4931   89.9251 C.3         1 EML      -0.0244
     27 C17        -7.9474   28.3860   92.4757 C.3         1 EML       0.0892
     28 C18       -10.1189   29.0086   91.3789 C.3         1 EML      -0.0168
     29 C19        -5.4773   27.0730   81.3163 C.3         1 EML      -0.0245
     30 C20        -8.3391   30.7900   91.6959 C.3         1 EML      -0.0168
     31 H1         -8.6234   25.6204   85.7683 H           1 EML       0.2327
     32 H2         -8.2918   29.3881   94.0910 H           1 EML       0.2097
     33 H3         -6.2210   24.6260   80.8338 H           1 EML       0.0922
     34 H4         -6.0132   29.5066   90.6786 H           1 EML       0.0812
     35 H5         -6.0942   29.3714   88.9592 H           1 EML       0.0812
     36 H6         -6.1219   20.5813   78.7017 H           1 EML       0.2577
     37 H7         -8.8474   20.2415   81.6147 H           1 EML       0.0660
     38 H8         -8.2300   27.9107   89.8710 H           1 EML       0.2059
     39 H9         -9.0304   21.6387   83.5722 H           1 EML       0.0468
     40 H10        -5.8743   22.6319   79.9615 H           1 EML       0.0974
     41 H11        -8.8868   27.0302   87.6409 H           1 EML       0.0280
     42 H12        -8.3967   30.6145   88.7631 H           1 EML       0.1036
     43 H13        -9.7065   29.4437   88.7839 H           1 EML       0.1036
     44 H14        -4.7692   27.5484   89.8834 H           1 EML       0.0281
     45 H15        -6.2212   26.9029   89.0803 H           1 EML       0.0281
     46 H16        -6.1198   26.9718   90.8413 H           1 EML       0.0281
     47 H17        -8.0513   27.3373   92.1938 H           1 EML       0.0616
     48 H18        -6.8861   28.6072   92.6124 H           1 EML       0.0616
     49 H19       -10.5281   29.1284   92.3826 H           1 EML       0.0288
     50 H20       -10.3307   27.9935   91.0417 H           1 EML       0.0288
     51 H21       -10.6722   29.7064   90.7540 H           1 EML       0.0288
     52 H22        -5.3676   28.0414   81.8068 H           1 EML       0.0384
     53 H23        -5.9261   27.2328   80.3346 H           1 EML       0.0384
     54 H24        -4.4828   26.6413   81.1860 H           1 EML       0.0384
     55 H25        -8.8445   31.0480   92.6293 H           1 EML       0.0288
     56 H26        -8.7282   31.4463   90.9180 H           1 EML       0.0288
     57 H27        -7.2805   31.0184   91.8238 H           1 EML       0.0288
@<TRIPOS>BOND
     1    15     1   1
     2     1    17   1
     3     1    20   2
     4     2    11   1
     5    21     2   1
     6    27     3   1
     7    14     4   1
     8    21     4   1
     9     7     5   2
    10     8     5   1
    11    13     6   2
    12     6    19   1
    13    16     7   1
    14     7    29   1
    15    13     8   1
    16     8    15   1
    17    18     9   1
    18     9    26   1
    19    10    12   1
    20    20    10   1
    21    11    13   1
    22    11    16   2
    23    17    12   2
    24    24    14   2
    25    15    19   2
    26    18    23   1
    27    25    18   1
    28    22    21   2
    29    24    22   1
    30    23    24   1
    31    25    27   1
    32    25    28   1
    33    25    30   1
    34     2    31   1
    35     3    32   1
    36     5    33   1
    37     9    34   1
    38     9    35   1
    39    10    36   1
    40    17    37   1
    41    18    38   1
    42    19    39   1
    43    20    40   1
    44    22    41   1
    45    23    42   1
    46    23    43   1
    47    26    44   1
    48    26    45   1
    49    26    46   1
    50    27    47   1
    51    27    48   1
    52    28    49   1
    53    28    50   1
    54    28    51   1
    55    29    52   1
    56    29    53   1
    57    29    54   1
    58    30    55   1
    59    30    56   1
    60    30    57   1
@<TRIPOS>SUBSTRUCTURE
     1  EML      1

