@<TRIPOS>MOLECULE
3myg_ligand_006
    57    60
SMALL
GAST_HUCK
****
This file was generated by PARSER (from files_GN.cpp)

@<TRIPOS>ATOM
      1 C1         -3.5932   33.1873   81.7215 C.2         1 EML       0.0195
      2 N1         -7.0717   29.0946   84.3518 N.pl3       1 EML      -0.2184
      3 O1         -9.6073   21.2681   81.4038 O.3         1 EML      -0.3892
      4 S1         -8.7803   27.7110   85.8071 S.3         1 EML       0.0206
      5 C2         -4.3548   30.1783   81.4420 C.2         1 EML       0.0730
      6 N2         -5.8640   31.8206   84.1380 N.2         1 EML      -0.3304
      7 C3         -4.8284   28.9150   81.4850 C.2         1 EML       0.0276
      8 N3         -4.7811   31.0921   82.3428 N.pl3       1 EML      -0.2136
      9 C4         -7.5862   24.0966   81.4314 C.3         1 EML      -0.0323
     10 N4         -2.5986   34.1467   80.0020 N.pl3       1 EML      -0.2209
     11 C5         -6.1836   29.4599   83.3991 C.2         1 EML       0.1947
     12 N5         -2.0420   34.6430   81.0660 N.2         1 EML      -0.2182
     13 C6         -5.6574   30.7729   83.3313 C.2         1 EML       0.1969
     14 N6         -8.9493   26.1251   85.3757 N.2         1 EML      -0.3061
     15 C7         -4.4439   32.3903   82.5177 C.2         1 EML       0.0797
     16 N7         -5.7199   28.6161   82.4382 N.2         1 EML      -0.2843
     17 C8         -2.6168   34.0906   82.1429 C.2         1 EML       0.0048
     18 N8         -8.6997   24.3125   82.4357 N.4         1 EML       0.2558
     19 C9         -5.1172   32.8244   83.6572 C.2         1 EML      -0.0220
     20 C10        -3.5467   33.2589   80.3354 C.2         1 EML       0.0562
     21 C11        -7.6531   27.9029   84.5456 C.2         1 EML       0.1479
     22 C12        -7.4850   26.7471   83.8927 C.2         1 EML      -0.0058
     23 C13        -8.1754   24.3975   83.8567 C.3         1 EML       0.0137
     24 C14        -8.2368   25.7580   84.3721 C.2         1 EML       0.0332
     25 C15       -10.0494   23.6109   82.2229 C.3         1 EML       0.0096
     26 C16        -6.6657   22.8568   81.5406 C.3         1 EML      -0.0244
     27 C17       -10.0560   22.0607   82.5007 C.3         1 EML       0.0892
     28 C18       -10.6044   23.8727   80.7747 C.3         1 EML      -0.0168
     29 C19        -4.3985   27.8766   80.5733 C.3         1 EML      -0.0245
     30 C20       -11.1163   24.2672   83.1775 C.3         1 EML      -0.0168
     31 H1         -7.3340   29.7971   84.9740 H           1 EML       0.2327
     32 H2         -9.6936   20.3390   81.6915 H           1 EML       0.2097
     33 H3         -3.6737   30.4163   80.7656 H           1 EML       0.0922
     34 H4         -6.9332   24.9717   81.4739 H           1 EML       0.0812
     35 H5         -7.9863   24.1159   80.4188 H           1 EML       0.0812
     36 H6         -2.3771   34.4029   79.0903 H           1 EML       0.2577
     37 H7         -2.3688   34.2940   83.1120 H           1 EML       0.0660
     38 H8         -8.9508   25.2817   82.2342 H           1 EML       0.2059
     39 H9         -5.0796   33.7638   84.0587 H           1 EML       0.0468
     40 H10        -4.1401   32.7608   79.6690 H           1 EML       0.0974
     41 H11        -6.8520   26.6032   83.1415 H           1 EML       0.0280
     42 H12        -7.1283   24.0902   83.9370 H           1 EML       0.1036
     43 H13        -8.7147   23.7253   84.5283 H           1 EML       0.1036
     44 H14        -5.8358   22.9746   80.8384 H           1 EML       0.0281
     45 H15        -7.1881   21.9366   81.2968 H           1 EML       0.0281
     46 H16        -6.2380   22.7613   82.5374 H           1 EML       0.0281
     47 H17        -9.4451   21.8187   83.3703 H           1 EML       0.0616
     48 H18       -11.0707   21.7106   82.7117 H           1 EML       0.0616
     49 H19       -11.6245   23.4956   80.6636 H           1 EML       0.0288
     50 H20       -10.0084   23.3644   80.0162 H           1 EML       0.0288
     51 H21       -10.6023   24.9431   80.5520 H           1 EML       0.0288
     52 H22        -4.8853   26.9208   80.8001 H           1 EML       0.0384
     53 H23        -3.3181   27.7341   80.6549 H           1 EML       0.0384
     54 H24        -4.6488   28.1575   79.5465 H           1 EML       0.0384
     55 H25       -12.1288   23.9298   82.9475 H           1 EML       0.0288
     56 H26       -11.0979   25.3556   83.0848 H           1 EML       0.0288
     57 H27       -10.9327   24.0118   84.2219 H           1 EML       0.0288
@<TRIPOS>BOND
     1    15     1   1
     2     1    17   1
     3     1    20   2
     4     2    11   1
     5    21     2   1
     6    27     3   1
     7    14     4   1
     8    21     4   1
     9     7     5   2
    10     8     5   1
    11    13     6   2
    12     6    19   1
    13    16     7   1
    14     7    29   1
    15    13     8   1
    16     8    15   1
    17    18     9   1
    18     9    26   1
    19    10    12   1
    20    20    10   1
    21    11    13   1
    22    11    16   2
    23    17    12   2
    24    24    14   2
    25    15    19   2
    26    18    23   1
    27    25    18   1
    28    22    21   2
    29    24    22   1
    30    23    24   1
    31    25    27   1
    32    25    28   1
    33    25    30   1
    34     2    31   1
    35     3    32   1
    36     5    33   1
    37     9    34   1
    38     9    35   1
    39    10    36   1
    40    17    37   1
    41    18    38   1
    42    19    39   1
    43    20    40   1
    44    22    41   1
    45    23    42   1
    46    23    43   1
    47    26    44   1
    48    26    45   1
    49    26    46   1
    50    27    47   1
    51    27    48   1
    52    28    49   1
    53    28    50   1
    54    28    51   1
    55    29    52   1
    56    29    53   1
    57    29    54   1
    58    30    55   1
    59    30    56   1
    60    30    57   1
@<TRIPOS>SUBSTRUCTURE
     1  EML      1

