@<TRIPOS>MOLECULE
3myg_ligand_022
    57    60
SMALL
GAST_HUCK
****
This file was generated by PARSER (from files_GN.cpp)

@<TRIPOS>ATOM
      1 C1         -3.2115   45.4478   82.3073 C.2         1 EML       0.0195
      2 N1         -3.1716   39.5545   83.0022 N.pl3       1 EML      -0.2184
      3 O1         -1.4900   31.7201   83.1406 O.3         1 EML      -0.3892
      4 S1         -3.6956   37.9820   85.1682 S.3         1 EML       0.0206
      5 C2         -4.2508   43.3055   84.3427 C.2         1 EML       0.0730
      6 N2         -2.4382   42.0191   81.6325 N.2         1 EML      -0.3304
      7 C3         -4.5651   42.2230   85.0938 C.2         1 EML       0.0276
      8 N3         -3.5567   43.1454   83.1952 N.pl3       1 EML      -0.2136
      9 C4         -0.5052   34.9128   82.2860 C.3         1 EML      -0.0323
     10 N4         -4.0516   47.4815   82.2333 N.pl3       1 EML      -0.2209
     11 C5         -3.5104   40.7674   83.4953 C.2         1 EML       0.1947
     12 N5         -2.7600   47.6235   82.2128 N.2         1 EML      -0.2182
     13 C6         -3.1683   41.9249   82.7572 C.2         1 EML       0.1969
     14 N6         -3.3915   36.3955   84.8337 N.2         1 EML      -0.3061
     15 C7         -3.0656   44.0505   82.3157 C.2         1 EML       0.0797
     16 N7         -4.1948   40.9992   84.6532 N.2         1 EML      -0.2843
     17 C8         -2.2023   46.4039   82.2494 C.2         1 EML       0.0048
     18 N8         -1.9436   34.5440   81.9701 N.4         1 EML       0.2558
     19 C9         -2.3610   43.3241   81.3551 C.2         1 EML      -0.0220
     20 C10        -4.3884   46.1850   82.2966 C.2         1 EML       0.0562
     21 C11        -3.3329   38.3487   83.5458 C.2         1 EML       0.1479
     22 C12        -3.0676   37.2425   82.8614 C.2         1 EML      -0.0058
     23 C13        -2.8525   34.7857   83.1617 C.3         1 EML       0.0137
     24 C14        -3.0555   36.1464   83.6237 C.2         1 EML       0.0332
     25 C15        -2.2043   33.2000   81.2602 C.3         1 EML       0.0096
     26 C16        -0.1950   36.4317   82.2110 C.3         1 EML      -0.0244
     27 C17        -2.5434   32.0079   82.2268 C.3         1 EML       0.0892
     28 C18        -1.0380   32.7151   80.3222 C.3         1 EML      -0.0168
     29 C19        -5.2862   42.3399   86.3443 C.3         1 EML      -0.0245
     30 C20        -3.4226   33.4138   80.2933 C.3         1 EML      -0.0168
     31 H1         -2.7576   39.5637   82.1224 H           1 EML       0.2327
     32 H2         -1.8028   30.9296   83.6329 H           1 EML       0.2097
     33 H3         -4.5110   44.2144   84.6432 H           1 EML       0.0922
     34 H4          0.1879   34.4768   81.5702 H           1 EML       0.0812
     35 H5         -0.2117   34.5407   83.2705 H           1 EML       0.0812
     36 H6         -4.6834   48.2175   82.1975 H           1 EML       0.2577
     37 H7         -1.1955   46.2185   82.2529 H           1 EML       0.0660
     38 H8         -2.2290   35.2427   81.2735 H           1 EML       0.2059
     39 H9         -1.8791   43.7121   80.5413 H           1 EML       0.0468
     40 H10        -5.3424   45.8164   82.2913 H           1 EML       0.0974
     41 H11        -2.7791   37.2413   81.9090 H           1 EML       0.0280
     42 H12        -2.4957   34.1786   83.9975 H           1 EML       0.1036
     43 H13        -3.8634   34.4410   82.9559 H           1 EML       0.1036
     44 H14         0.8866   36.5951   82.1287 H           1 EML       0.0281
     45 H15        -0.5417   36.9528   83.1042 H           1 EML       0.0281
     46 H16        -0.6715   36.8646   81.3302 H           1 EML       0.0281
     47 H17        -3.4392   32.2243   82.8130 H           1 EML       0.0616
     48 H18        -2.7469   31.0973   81.6559 H           1 EML       0.0616
     49 H19        -1.3439   31.8629   79.7050 H           1 EML       0.0288
     50 H20        -0.1802   32.3773   80.9046 H           1 EML       0.0288
     51 H21        -0.7121   33.5174   79.6522 H           1 EML       0.0288
     52 H22        -5.4471   41.3641   86.8064 H           1 EML       0.0384
     53 H23        -6.2604   42.7991   86.1719 H           1 EML       0.0384
     54 H24        -4.7234   42.9569   87.0459 H           1 EML       0.0384
     55 H25        -3.6289   32.5195   79.7042 H           1 EML       0.0288
     56 H26        -3.2218   34.2404   79.6068 H           1 EML       0.0288
     57 H27        -4.3394   33.6406   80.8354 H           1 EML       0.0288
@<TRIPOS>BOND
     1    15     1   1
     2     1    17   1
     3     1    20   2
     4     2    11   1
     5    21     2   1
     6    27     3   1
     7    14     4   1
     8    21     4   1
     9     7     5   2
    10     8     5   1
    11    13     6   2
    12     6    19   1
    13    16     7   1
    14     7    29   1
    15    13     8   1
    16     8    15   1
    17    18     9   1
    18     9    26   1
    19    10    12   1
    20    20    10   1
    21    11    13   1
    22    11    16   2
    23    17    12   2
    24    24    14   2
    25    15    19   2
    26    18    23   1
    27    25    18   1
    28    22    21   2
    29    24    22   1
    30    23    24   1
    31    25    27   1
    32    25    28   1
    33    25    30   1
    34     2    31   1
    35     3    32   1
    36     5    33   1
    37     9    34   1
    38     9    35   1
    39    10    36   1
    40    17    37   1
    41    18    38   1
    42    19    39   1
    43    20    40   1
    44    22    41   1
    45    23    42   1
    46    23    43   1
    47    26    44   1
    48    26    45   1
    49    26    46   1
    50    27    47   1
    51    27    48   1
    52    28    49   1
    53    28    50   1
    54    28    51   1
    55    29    52   1
    56    29    53   1
    57    29    54   1
    58    30    55   1
    59    30    56   1
    60    30    57   1
@<TRIPOS>SUBSTRUCTURE
     1  EML      1

