@<TRIPOS>MOLECULE
3myg_ligand_027
    57    60
SMALL
GAST_HUCK
****
This file was generated by PARSER (from files_GN.cpp)

@<TRIPOS>ATOM
      1 C1         -3.1100   28.2152   86.6728 C.2         1 EML       0.0195
      2 N1         -3.5234   33.9776   85.2383 N.pl3       1 EML      -0.2184
      3 O1         -2.0905   41.9058   85.2673 O.3         1 EML      -0.3892
      4 S1         -2.0595   36.1031   86.1319 S.3         1 EML       0.0206
      5 C2         -1.3540   30.7955   86.7247 C.2         1 EML       0.0730
      6 N2         -4.6184   31.2602   85.5517 N.2         1 EML      -0.3304
      7 C3         -0.7908   32.0243   86.6818 C.2         1 EML       0.0276
      8 N3         -2.6292   30.6308   86.3093 N.pl3       1 EML      -0.2136
      9 C4         -2.2043   39.5534   82.6266 C.3         1 EML      -0.0323
     10 N4         -3.1815   26.1937   87.5392 N.pl3       1 EML      -0.2209
     11 C5         -2.8029   32.9561   85.7540 C.2         1 EML       0.1947
     12 N5         -2.1525   26.2188   86.7493 N.2         1 EML      -0.2182
     13 C6         -3.3693   31.6635   85.8342 C.2         1 EML       0.1969
     14 N6         -2.5852   37.5151   85.4569 N.2         1 EML      -0.3061
     15 C7         -3.4255   29.5408   86.3186 C.2         1 EML       0.0797
     16 N7         -1.5171   33.0552   86.1988 N.2         1 EML      -0.2843
     17 C8         -2.0616   27.4365   86.1991 C.2         1 EML       0.0048
     18 N8         -3.2235   39.7321   83.7365 N.4         1 EML       0.2558
     19 C9         -4.6729   29.9549   85.8514 C.2         1 EML      -0.0220
     20 C10        -3.8134   27.3765   87.5283 C.2         1 EML       0.0562
     21 C11        -3.2094   35.2702   85.1859 C.2         1 EML       0.1479
     22 C12        -3.9049   36.1211   84.4334 C.2         1 EML      -0.0058
     23 C13        -4.1252   38.5292   83.9024 C.3         1 EML       0.0137
     24 C14        -3.4982   37.3909   84.5691 C.2         1 EML       0.0332
     25 C15        -3.8892   41.1246   83.7612 C.3         1 EML       0.0096
     26 C16        -1.5184   38.1900   82.3771 C.3         1 EML      -0.0244
     27 C17        -2.7976   42.2165   84.0655 C.3         1 EML       0.0892
     28 C18        -4.9731   41.2847   84.8955 C.3         1 EML      -0.0168
     29 C19         0.5573   32.2675   87.1520 C.3         1 EML      -0.0245
     30 C20        -4.5892   41.5139   82.4111 C.3         1 EML      -0.0168
     31 H1         -4.3791   33.7361   84.8513 H           1 EML       0.2327
     32 H2         -1.1540   41.7944   84.9959 H           1 EML       0.2097
     33 H3         -0.8460   30.0233   87.0919 H           1 EML       0.0922
     34 H4         -1.3753   40.2301   82.8307 H           1 EML       0.0812
     35 H5         -2.6346   39.8424   81.6690 H           1 EML       0.0812
     36 H6         -3.4589   25.4274   88.0636 H           1 EML       0.2577
     37 H7         -1.3596   27.7239   85.5196 H           1 EML       0.0660
     38 H8         -2.6730   39.7286   84.5946 H           1 EML       0.2059
     39 H9         -5.4939   29.3617   85.7262 H           1 EML       0.0468
     40 H10        -4.6473   27.6169   88.0727 H           1 EML       0.0974
     41 H11        -4.6649   35.8473   83.8536 H           1 EML       0.0280
     42 H12        -4.5229   38.2333   82.9299 H           1 EML       0.1036
     43 H13        -4.9895   38.7395   84.5330 H           1 EML       0.1036
     44 H14        -0.7775   38.2947   81.5778 H           1 EML       0.0281
     45 H15        -2.2412   37.4438   82.0546 H           1 EML       0.0281
     46 H16        -1.0106   37.8461   83.2768 H           1 EML       0.0281
     47 H17        -2.0822   42.3097   83.2430 H           1 EML       0.0616
     48 H18        -3.2419   43.2101   84.1845 H           1 EML       0.0616
     49 H19        -5.2264   42.3360   85.0752 H           1 EML       0.0288
     50 H20        -4.6137   40.8610   85.8377 H           1 EML       0.0288
     51 H21        -5.9103   40.7870   84.6285 H           1 EML       0.0288
     52 H22         0.8506   33.3105   87.0098 H           1 EML       0.0384
     53 H23         1.2653   31.6386   86.6088 H           1 EML       0.0384
     54 H24         0.6253   32.0367   88.2173 H           1 EML       0.0384
     55 H25        -5.1642   42.4407   82.5104 H           1 EML       0.0288
     56 H26        -5.2755   40.7274   82.0959 H           1 EML       0.0288
     57 H27        -3.8643   41.6745   81.6081 H           1 EML       0.0288
@<TRIPOS>BOND
     1    15     1   1
     2     1    17   1
     3     1    20   2
     4     2    11   1
     5    21     2   1
     6    27     3   1
     7    14     4   1
     8    21     4   1
     9     7     5   2
    10     8     5   1
    11    13     6   2
    12     6    19   1
    13    16     7   1
    14     7    29   1
    15    13     8   1
    16     8    15   1
    17    18     9   1
    18     9    26   1
    19    10    12   1
    20    20    10   1
    21    11    13   1
    22    11    16   2
    23    17    12   2
    24    24    14   2
    25    15    19   2
    26    18    23   1
    27    25    18   1
    28    22    21   2
    29    24    22   1
    30    23    24   1
    31    25    27   1
    32    25    28   1
    33    25    30   1
    34     2    31   1
    35     3    32   1
    36     5    33   1
    37     9    34   1
    38     9    35   1
    39    10    36   1
    40    17    37   1
    41    18    38   1
    42    19    39   1
    43    20    40   1
    44    22    41   1
    45    23    42   1
    46    23    43   1
    47    26    44   1
    48    26    45   1
    49    26    46   1
    50    27    47   1
    51    27    48   1
    52    28    49   1
    53    28    50   1
    54    28    51   1
    55    29    52   1
    56    29    53   1
    57    29    54   1
    58    30    55   1
    59    30    56   1
    60    30    57   1
@<TRIPOS>SUBSTRUCTURE
     1  EML      1

