@<TRIPOS>MOLECULE
3myg_ligand_036
    57    60
SMALL
GAST_HUCK
****
This file was generated by PARSER (from files_GN.cpp)

@<TRIPOS>ATOM
      1 C1         -8.1053   27.9367   75.0100 C.2         1 EML       0.0195
      2 N1         -5.5207   30.5226   79.7105 N.pl3       1 EML      -0.2184
      3 O1         -8.3298   27.2094   86.1342 O.3         1 EML      -0.3892
      4 S1         -3.8164   31.0596   81.6605 S.3         1 EML       0.0206
      5 C2         -8.6076   28.3746   77.9876 C.2         1 EML       0.0730
      6 N2         -5.7228   29.9427   76.7743 N.2         1 EML      -0.3304
      7 C3         -8.6340   28.6565   79.3070 C.2         1 EML       0.0276
      8 N3         -7.5899   28.8389   77.2333 N.pl3       1 EML      -0.2136
      9 C4         -7.2092   30.1635   86.6247 C.3         1 EML      -0.0323
     10 N4         -9.0320   26.2105   74.0071 N.pl3       1 EML      -0.2209
     11 C5         -6.5617   29.8683   79.1293 C.2         1 EML       0.1947
     12 N5         -9.6611   27.2669   73.5787 N.2         1 EML      -0.2182
     13 C6         -6.5812   29.5846   77.7443 C.2         1 EML       0.1969
     14 N6         -4.5040   31.1103   83.1639 N.2         1 EML      -0.3061
     15 C7         -7.3603   28.7028   75.9136 C.2         1 EML       0.0797
     16 N7         -7.6177   29.3665   79.8280 N.2         1 EML      -0.2843
     17 C8         -9.1221   28.3475   74.1572 C.2         1 EML       0.0048
     18 N8         -7.1093   29.9120   85.1342 N.4         1 EML       0.2558
     19 C9         -6.1941   29.4092   75.6372 C.2         1 EML      -0.0220
     20 C10        -8.0806   26.5530   74.8870 C.2         1 EML       0.0562
     21 C11        -5.3685   30.7994   81.0089 C.2         1 EML       0.1479
     22 C12        -6.2922   30.8938   81.9677 C.2         1 EML      -0.0058
     23 C13        -6.5491   31.1539   84.4355 C.3         1 EML       0.0137
     24 C14        -5.7818   30.9722   83.2028 C.2         1 EML       0.0332
     25 C15        -8.2856   29.1363   84.4898 C.3         1 EML       0.0096
     26 C16        -7.9274   31.4598   87.0770 C.3         1 EML      -0.0244
     27 C17        -9.1201   28.1698   85.4305 C.3         1 EML       0.0892
     28 C18        -7.6708   28.1888   83.4012 C.3         1 EML      -0.0168
     29 C19        -9.7187   28.2389   80.1680 C.3         1 EML      -0.0245
     30 C20        -9.3614   30.0725   83.8268 C.3         1 EML      -0.0168
     31 H1         -4.7656   30.7211   79.1313 H           1 EML       0.2327
     32 H2         -8.9820   26.6216   86.5795 H           1 EML       0.2097
     33 H3         -9.3428   27.8598   77.5693 H           1 EML       0.0922
     34 H4         -6.1919   30.1844   87.0307 H           1 EML       0.0812
     35 H5         -7.6697   29.3190   87.1355 H           1 EML       0.0812
     36 H6         -9.2485   25.3037   73.7449 H           1 EML       0.2577
     37 H7         -9.4450   29.3049   74.0226 H           1 EML       0.0660
     38 H8         -6.3297   29.2505   85.0838 H           1 EML       0.2059
     39 H9         -5.7500   29.4968   74.7212 H           1 EML       0.0468
     40 H10        -7.4608   25.9158   75.3872 H           1 EML       0.0974
     41 H11        -7.2675   30.8546   81.8009 H           1 EML       0.0280
     42 H12        -5.8575   31.6748   85.1094 H           1 EML       0.1036
     43 H13        -7.3406   31.8881   84.2658 H           1 EML       0.1036
     44 H14        -7.9603   31.4895   88.1667 H           1 EML       0.0281
     45 H15        -8.9482   31.4892   86.7034 H           1 EML       0.0281
     46 H16        -7.3933   32.3408   86.7265 H           1 EML       0.0281
     47 H17        -9.7042   28.7356   86.1592 H           1 EML       0.0616
     48 H18        -9.8413   27.5921   84.8428 H           1 EML       0.0616
     49 H19        -8.4343   27.5523   82.9480 H           1 EML       0.0288
     50 H20        -6.9064   27.5395   83.8388 H           1 EML       0.0288
     51 H21        -7.2048   28.7400   82.5950 H           1 EML       0.0288
     52 H22        -9.5749   28.5986   81.1896 H           1 EML       0.0384
     53 H23        -9.7853   27.1492   80.1935 H           1 EML       0.0384
     54 H24       -10.6607   28.6499   79.7995 H           1 EML       0.0384
     55 H25       -10.1839   29.4919   83.3973 H           1 EML       0.0288
     56 H26        -8.9272   30.6605   83.0143 H           1 EML       0.0288
     57 H27        -9.7806   30.7581   84.5695 H           1 EML       0.0288
@<TRIPOS>BOND
     1    15     1   1
     2     1    17   1
     3     1    20   2
     4     2    11   1
     5    21     2   1
     6    27     3   1
     7    14     4   1
     8    21     4   1
     9     7     5   2
    10     8     5   1
    11    13     6   2
    12     6    19   1
    13    16     7   1
    14     7    29   1
    15    13     8   1
    16     8    15   1
    17    18     9   1
    18     9    26   1
    19    10    12   1
    20    20    10   1
    21    11    13   1
    22    11    16   2
    23    17    12   2
    24    24    14   2
    25    15    19   2
    26    18    23   1
    27    25    18   1
    28    22    21   2
    29    24    22   1
    30    23    24   1
    31    25    27   1
    32    25    28   1
    33    25    30   1
    34     2    31   1
    35     3    32   1
    36     5    33   1
    37     9    34   1
    38     9    35   1
    39    10    36   1
    40    17    37   1
    41    18    38   1
    42    19    39   1
    43    20    40   1
    44    22    41   1
    45    23    42   1
    46    23    43   1
    47    26    44   1
    48    26    45   1
    49    26    46   1
    50    27    47   1
    51    27    48   1
    52    28    49   1
    53    28    50   1
    54    28    51   1
    55    29    52   1
    56    29    53   1
    57    29    54   1
    58    30    55   1
    59    30    56   1
    60    30    57   1
@<TRIPOS>SUBSTRUCTURE
     1  EML      1

