@<TRIPOS>MOLECULE
3myg_ligand_020
    57    60
SMALL
GAST_HUCK
****
This file was generated by PARSER (from files_GN.cpp)

@<TRIPOS>ATOM
      1 C1         -7.2343   28.4156   79.5743 C.2         1 EML       0.0195
      2 N1         -3.1017   32.8169   79.0628 N.pl3       1 EML      -0.2184
      3 O1          1.0777   34.5616   84.5953 O.3         1 EML      -0.3892
      4 S1         -2.0693   31.8299   81.3661 S.3         1 EML       0.0206
      5 C2         -5.7249   30.0780   77.4268 C.2         1 EML       0.0730
      6 N2         -4.9008   30.8699   80.7283 N.2         1 EML      -0.3304
      7 C3         -4.9673   30.8894   76.6589 C.2         1 EML       0.0276
      8 N3         -5.6425   30.1546   78.7731 N.pl3       1 EML      -0.2136
      9 C4         -3.4717   35.4830   84.0055 C.3         1 EML      -0.0323
     10 N4         -8.9214   27.1818   78.8899 N.pl3       1 EML      -0.2209
     11 C5         -3.9778   31.8789   78.6199 C.2         1 EML       0.1947
     12 N5         -8.3637   26.5170   79.8599 N.2         1 EML      -0.2182
     13 C6         -4.7906   31.0022   79.3937 C.2         1 EML       0.1969
     14 N6         -1.4963   33.0181   82.3544 N.2         1 EML      -0.3061
     15 C7         -6.2762   29.4344   79.7264 C.2         1 EML       0.0797
     16 N7         -4.1424   31.7654   77.2665 N.2         1 EML      -0.2843
     17 C8         -7.3262   27.2381   80.3168 C.2         1 EML       0.0048
     18 N8         -1.9571   35.6131   84.0756 N.4         1 EML       0.2558
     19 C9         -5.7976   29.9023   80.9498 C.2         1 EML      -0.0220
     20 C10        -8.2839   28.3389   78.6657 C.2         1 EML       0.0562
     21 C11        -2.6265   33.0305   80.2929 C.2         1 EML       0.1479
     22 C12        -2.2369   34.2346   80.7146 C.2         1 EML      -0.0058
     23 C13        -1.3169   35.3965   82.7153 C.3         1 EML       0.0137
     24 C14        -1.6714   34.2160   81.9302 C.2         1 EML       0.0332
     25 C15        -1.2690   35.1221   85.3598 C.3         1 EML       0.0096
     26 C16        -4.1411   36.8510   83.7681 C.3         1 EML      -0.0244
     27 C17         0.2724   35.4381   85.3817 C.3         1 EML       0.0892
     28 C18        -1.4765   33.6000   85.6541 C.3         1 EML      -0.0168
     29 C19        -5.0130   30.8119   75.2124 C.3         1 EML      -0.0245
     30 C20        -1.8585   35.9269   86.5799 C.3         1 EML      -0.0168
     31 H1         -2.7982   33.4459   78.3896 H           1 EML       0.2327
     32 H2          1.9905   34.9100   84.6917 H           1 EML       0.2097
     33 H3         -6.3204   29.4170   76.9999 H           1 EML       0.0922
     34 H4         -3.9018   35.0741   84.9204 H           1 EML       0.0812
     35 H5         -3.8087   34.8055   83.2150 H           1 EML       0.0812
     36 H6         -9.7166   26.9076   78.4155 H           1 EML       0.2577
     37 H7         -6.7068   26.9543   81.0785 H           1 EML       0.0660
     38 H8         -1.8283   36.6203   84.1775 H           1 EML       0.2059
     39 H9         -6.0876   29.5684   81.8737 H           1 EML       0.0468
     40 H10        -8.5487   29.0522   77.9794 H           1 EML       0.0974
     41 H11        -2.3597   35.0602   80.1798 H           1 EML       0.0280
     42 H12        -0.2331   35.4214   82.7720 H           1 EML       0.1036
     43 H13        -1.5665   36.2837   82.1231 H           1 EML       0.1036
     44 H14        -5.2243   36.7348   83.7176 H           1 EML       0.0281
     45 H15        -3.7970   37.2890   82.8335 H           1 EML       0.0281
     46 H16        -3.9040   37.5357   84.5837 H           1 EML       0.0281
     47 H17         0.4411   36.4646   85.0417 H           1 EML       0.0616
     48 H18         0.6753   35.3570   86.3966 H           1 EML       0.0616
     49 H19        -0.9814   33.3241   86.5872 H           1 EML       0.0288
     50 H20        -1.0507   32.9864   84.8672 H           1 EML       0.0288
     51 H21        -2.5309   33.3441   85.7517 H           1 EML       0.0288
     52 H22        -4.2932   31.4856   74.7488 H           1 EML       0.0384
     53 H23        -6.0086   31.0803   74.8607 H           1 EML       0.0384
     54 H24        -4.7838   29.7979   74.8826 H           1 EML       0.0384
     55 H25        -1.3186   35.7072   87.5036 H           1 EML       0.0288
     56 H26        -2.8996   35.6874   86.7778 H           1 EML       0.0288
     57 H27        -1.7873   37.0010   86.3982 H           1 EML       0.0288
@<TRIPOS>BOND
     1    15     1   1
     2     1    17   1
     3     1    20   2
     4     2    11   1
     5    21     2   1
     6    27     3   1
     7    14     4   1
     8    21     4   1
     9     7     5   2
    10     8     5   1
    11    13     6   2
    12     6    19   1
    13    16     7   1
    14     7    29   1
    15    13     8   1
    16     8    15   1
    17    18     9   1
    18     9    26   1
    19    10    12   1
    20    20    10   1
    21    11    13   1
    22    11    16   2
    23    17    12   2
    24    24    14   2
    25    15    19   2
    26    18    23   1
    27    25    18   1
    28    22    21   2
    29    24    22   1
    30    23    24   1
    31    25    27   1
    32    25    28   1
    33    25    30   1
    34     2    31   1
    35     3    32   1
    36     5    33   1
    37     9    34   1
    38     9    35   1
    39    10    36   1
    40    17    37   1
    41    18    38   1
    42    19    39   1
    43    20    40   1
    44    22    41   1
    45    23    42   1
    46    23    43   1
    47    26    44   1
    48    26    45   1
    49    26    46   1
    50    27    47   1
    51    27    48   1
    52    28    49   1
    53    28    50   1
    54    28    51   1
    55    29    52   1
    56    29    53   1
    57    29    54   1
    58    30    55   1
    59    30    56   1
    60    30    57   1
@<TRIPOS>SUBSTRUCTURE
     1  EML      1

