@<TRIPOS>MOLECULE
3myg_ligand_028
    57    60
SMALL
GAST_HUCK
****
This file was generated by PARSER (from files_GN.cpp)

@<TRIPOS>ATOM
      1 C1         -3.0635   33.0462   82.7499 C.2         1 EML       0.0195
      2 N1         -7.0474   28.6254   83.0948 N.pl3       1 EML      -0.2184
      3 O1         -9.6403   21.7179   83.0840 O.3         1 EML      -0.3892
      4 S1         -9.1238   27.1482   83.7358 S.3         1 EML       0.0206
      5 C2         -4.0612   30.5994   81.0400 C.2         1 EML       0.0730
      6 N2         -5.6394   30.9766   84.1417 N.2         1 EML      -0.3304
      7 C3         -4.6693   29.5331   80.4727 C.2         1 EML       0.0276
      8 N3         -4.4277   31.0008   82.2759 N.pl3       1 EML      -0.2136
      9 C4         -9.9728   22.6892   80.1443 C.3         1 EML      -0.0323
     10 N4         -1.2422   34.1075   82.0980 N.pl3       1 EML      -0.2209
     11 C5         -6.0489   29.2384   82.4132 C.2         1 EML       0.1947
     12 N5         -1.9869   34.9973   82.6729 N.2         1 EML      -0.2182
     13 C6         -5.4013   30.3619   82.9729 C.2         1 EML       0.1969
     14 N6         -9.5264   25.9782   82.6440 N.2         1 EML      -0.3061
     15 C7         -4.0339   32.0547   83.0230 C.2         1 EML       0.0797
     16 N7         -5.6327   28.8888   81.1638 N.2         1 EML      -0.2843
     17 C8         -3.1126   34.3958   83.0946 C.2         1 EML       0.0048
     18 N8         -9.1167   23.4752   81.1187 N.4         1 EML       0.2558
     19 C9         -4.8069   32.0235   84.1843 C.2         1 EML      -0.0220
     20 C10        -1.8379   32.9053   82.1098 C.2         1 EML       0.0562
     21 C11        -7.8227   27.6018   82.7300 C.2         1 EML       0.1479
     22 C12        -7.7795   26.8224   81.6467 C.2         1 EML      -0.0058
     23 C13        -8.9057   24.8845   80.6004 C.3         1 EML       0.0137
     24 C14        -8.7444   25.8945   81.6345 C.2         1 EML       0.0332
     25 C15        -7.8800   22.7220   81.6393 C.3         1 EML       0.0096
     26 C16       -11.4201   23.2235   79.9994 C.3         1 EML      -0.0244
     27 C17        -8.3328   21.5133   82.5455 C.3         1 EML       0.0892
     28 C18        -6.9363   23.6033   82.5353 C.3         1 EML      -0.0168
     29 C19        -4.3465   29.0833   79.1311 C.3         1 EML      -0.0245
     30 C20        -6.9996   22.1610   80.4702 C.3         1 EML      -0.0168
     31 H1         -7.2496   28.9997   83.9622 H           1 EML       0.2327
     32 H2         -9.9352   20.8113   83.3302 H           1 EML       0.2097
     33 H3         -3.3715   31.0971   80.5305 H           1 EML       0.0922
     34 H4        -10.0931   21.6554   80.4620 H           1 EML       0.0812
     35 H5         -9.5015   22.6553   79.1561 H           1 EML       0.0812
     36 H6         -0.3650   34.2880   81.7206 H           1 EML       0.2577
     37 H7         -3.8809   34.8636   83.5780 H           1 EML       0.0660
     38 H8         -9.7081   23.5910   81.9446 H           1 EML       0.2059
     39 H9         -4.7525   32.6858   84.9662 H           1 EML       0.0468
     40 H10        -1.4218   32.0438   81.7476 H           1 EML       0.0974
     41 H11        -7.1093   26.9060   80.9189 H           1 EML       0.0280
     42 H12        -9.7690   25.2328   80.0227 H           1 EML       0.1036
     43 H13        -8.0601   24.8962   79.9041 H           1 EML       0.1036
     44 H14       -12.0434   22.4772   79.4933 H           1 EML       0.0281
     45 H15       -11.4369   24.1389   79.4068 H           1 EML       0.0281
     46 H16       -11.8496   23.4211   80.9854 H           1 EML       0.0281
     47 H17        -8.3402   20.5746   81.9797 H           1 EML       0.0616
     48 H18        -7.6515   21.3448   83.3837 H           1 EML       0.0616
     49 H19        -6.1330   23.0112   82.9837 H           1 EML       0.0288
     50 H20        -7.4981   24.0695   83.3478 H           1 EML       0.0288
     51 H21        -6.4508   24.3833   81.9484 H           1 EML       0.0288
     52 H22        -4.9508   28.2175   78.8416 H           1 EML       0.0384
     53 H23        -3.2946   28.7970   79.0745 H           1 EML       0.0384
     54 H24        -4.5363   29.8855   78.4125 H           1 EML       0.0384
     55 H25        -6.1290   21.6238   80.8567 H           1 EML       0.0288
     56 H26        -6.6341   22.9670   79.8308 H           1 EML       0.0288
     57 H27        -7.5638   21.4653   79.8436 H           1 EML       0.0288
@<TRIPOS>BOND
     1    15     1   1
     2     1    17   1
     3     1    20   2
     4     2    11   1
     5    21     2   1
     6    27     3   1
     7    14     4   1
     8    21     4   1
     9     7     5   2
    10     8     5   1
    11    13     6   2
    12     6    19   1
    13    16     7   1
    14     7    29   1
    15    13     8   1
    16     8    15   1
    17    18     9   1
    18     9    26   1
    19    10    12   1
    20    20    10   1
    21    11    13   1
    22    11    16   2
    23    17    12   2
    24    24    14   2
    25    15    19   2
    26    18    23   1
    27    25    18   1
    28    22    21   2
    29    24    22   1
    30    23    24   1
    31    25    27   1
    32    25    28   1
    33    25    30   1
    34     2    31   1
    35     3    32   1
    36     5    33   1
    37     9    34   1
    38     9    35   1
    39    10    36   1
    40    17    37   1
    41    18    38   1
    42    19    39   1
    43    20    40   1
    44    22    41   1
    45    23    42   1
    46    23    43   1
    47    26    44   1
    48    26    45   1
    49    26    46   1
    50    27    47   1
    51    27    48   1
    52    28    49   1
    53    28    50   1
    54    28    51   1
    55    29    52   1
    56    29    53   1
    57    29    54   1
    58    30    55   1
    59    30    56   1
    60    30    57   1
@<TRIPOS>SUBSTRUCTURE
     1  EML      1

