@<TRIPOS>MOLECULE
3myg_ligand_031
    57    60
SMALL
GAST_HUCK
****
This file was generated by PARSER (from files_GN.cpp)

@<TRIPOS>ATOM
      1 C1         -5.2269   43.0794   80.8123 C.2         1 EML       0.0195
      2 N1          0.1533   41.1159   82.8472 N.pl3       1 EML      -0.2184
      3 O1         -4.2765   33.9432   82.5513 O.3         1 EML      -0.3892
      4 S1          1.3120   39.8912   84.8015 S.3         1 EML       0.0206
      5 C2         -2.2168   43.7444   80.7391 C.2         1 EML       0.0730
      6 N2         -3.0209   40.8028   82.4447 N.2         1 EML      -0.3304
      7 C3         -0.8732   43.8435   80.8099 C.2         1 EML       0.0276
      8 N3         -2.8312   42.6896   81.3173 N.pl3       1 EML      -0.2136
      9 C4         -0.3276   35.2708   84.0890 C.3         1 EML      -0.0323
     10 N4         -6.9536   43.7336   79.6324 N.pl3       1 EML      -0.2209
     11 C5         -0.7406   41.8357   82.1339 C.2         1 EML       0.1947
     12 N5         -6.8733   44.5521   80.6395 N.2         1 EML      -0.2182
     13 C6         -2.1558   41.7278   81.9994 C.2         1 EML       0.1969
     14 N6          0.5126   38.5947   85.4316 N.2         1 EML      -0.3061
     15 C7         -4.1391   42.3583   81.3226 C.2         1 EML       0.0797
     16 N7         -0.1944   42.9119   81.5048 N.2         1 EML      -0.2843
     17 C8         -5.8186   44.1951   81.3890 C.2         1 EML       0.0048
     18 N8         -1.5695   36.1343   84.1767 N.4         1 EML       0.2558
     19 C9         -4.2428   41.1646   82.0289 C.2         1 EML      -0.0220
     20 C10        -5.9801   42.8118   79.6815 C.2         1 EML       0.0562
     21 C11         0.0460   40.0862   83.6789 C.2         1 EML       0.1479
     22 C12        -0.8419   39.0990   83.7996 C.2         1 EML      -0.0058
     23 C13        -1.4137   37.1780   85.2635 C.3         1 EML       0.0137
     24 C14        -0.5703   38.2842   84.8309 C.2         1 EML       0.0332
     25 C15        -2.9490   35.4807   84.0381 C.3         1 EML       0.0096
     26 C16        -0.0129   34.2803   85.2408 C.3         1 EML      -0.0244
     27 C17        -2.9843   34.4967   82.8103 C.3         1 EML       0.0892
     28 C18        -4.0175   36.5993   83.7363 C.3         1 EML      -0.0168
     29 C19        -0.1461   44.9169   80.1669 C.3         1 EML      -0.0245
     30 C20        -3.4111   34.7001   85.3120 C.3         1 EML      -0.0168
     31 H1          1.0429   41.4927   82.8225 H           1 EML       0.2327
     32 H2         -4.1339   32.9718   82.5006 H           1 EML       0.2097
     33 H3         -2.7463   44.4239   80.2466 H           1 EML       0.0922
     34 H4          0.5445   35.9233   83.9869 H           1 EML       0.0812
     35 H5         -0.3477   34.7112   83.1548 H           1 EML       0.0812
     36 H6         -7.6354   43.7856   78.9408 H           1 EML       0.2577
     37 H7         -5.5331   44.6471   82.2606 H           1 EML       0.0660
     38 H8         -1.5107   36.6761   83.3111 H           1 EML       0.2059
     39 H9         -5.1080   40.6587   82.2365 H           1 EML       0.0468
     40 H10        -5.8299   42.0652   79.0031 H           1 EML       0.0974
     41 H11        -1.5802   38.9294   83.1678 H           1 EML       0.0280
     42 H12        -1.0084   36.7334   86.1763 H           1 EML       0.1036
     43 H13        -2.3604   37.6177   85.5634 H           1 EML       0.1036
     44 H14         1.0370   33.9840   85.1874 H           1 EML       0.0281
     45 H15        -0.6187   33.3807   85.1553 H           1 EML       0.0281
     46 H16        -0.1821   34.7279   86.2204 H           1 EML       0.0281
     47 H17        -2.6539   35.0201   81.9106 H           1 EML       0.0616
     48 H18        -2.3133   33.6503   82.9689 H           1 EML       0.0616
     49 H19        -4.9827   36.1787   83.4515 H           1 EML       0.0288
     50 H20        -3.6781   37.2393   82.9192 H           1 EML       0.0288
     51 H21        -4.2100   37.2304   84.6030 H           1 EML       0.0288
     52 H22         0.9307   44.8297   80.3340 H           1 EML       0.0384
     53 H23        -0.4778   45.8794   80.5652 H           1 EML       0.0384
     54 H24        -0.3269   44.8949   79.0894 H           1 EML       0.0384
     55 H25        -4.4669   34.4268   85.2336 H           1 EML       0.0288
     56 H26        -3.2924   35.3048   86.2089 H           1 EML       0.0288
     57 H27        -2.8451   33.7818   85.4449 H           1 EML       0.0288
@<TRIPOS>BOND
     1    15     1   1
     2     1    17   1
     3     1    20   2
     4     2    11   1
     5    21     2   1
     6    27     3   1
     7    14     4   1
     8    21     4   1
     9     7     5   2
    10     8     5   1
    11    13     6   2
    12     6    19   1
    13    16     7   1
    14     7    29   1
    15    13     8   1
    16     8    15   1
    17    18     9   1
    18     9    26   1
    19    10    12   1
    20    20    10   1
    21    11    13   1
    22    11    16   2
    23    17    12   2
    24    24    14   2
    25    15    19   2
    26    18    23   1
    27    25    18   1
    28    22    21   2
    29    24    22   1
    30    23    24   1
    31    25    27   1
    32    25    28   1
    33    25    30   1
    34     2    31   1
    35     3    32   1
    36     5    33   1
    37     9    34   1
    38     9    35   1
    39    10    36   1
    40    17    37   1
    41    18    38   1
    42    19    39   1
    43    20    40   1
    44    22    41   1
    45    23    42   1
    46    23    43   1
    47    26    44   1
    48    26    45   1
    49    26    46   1
    50    27    47   1
    51    27    48   1
    52    28    49   1
    53    28    50   1
    54    28    51   1
    55    29    52   1
    56    29    53   1
    57    29    54   1
    58    30    55   1
    59    30    56   1
    60    30    57   1
@<TRIPOS>SUBSTRUCTURE
     1  EML      1

