@<TRIPOS>MOLECULE
3myg_ligand_072
    57    60
SMALL
GAST_HUCK
****
This file was generated by PARSER (from files_GN.cpp)

@<TRIPOS>ATOM
      1 C1         -5.5746   26.6950   91.5631 C.2         1 EML       0.0195
      2 N1         -2.6764   30.3045   87.8254 N.pl3       1 EML      -0.2184
      3 O1         -3.8901   29.3241   80.6252 O.3         1 EML      -0.3892
      4 S1         -0.8882   31.2578   86.1559 S.3         1 EML       0.0206
      5 C2         -6.1287   28.3941   89.0695 C.2         1 EML       0.0730
      6 N2         -2.8165   28.5348   90.2081 N.2         1 EML      -0.3304
      7 C3         -6.1599   29.2155   87.9961 C.2         1 EML       0.0276
      8 N3         -4.9644   28.2259   89.7342 N.pl3       1 EML      -0.2136
      9 C4         -4.9909   30.5055   83.2141 C.3         1 EML      -0.0323
     10 N4         -7.0009   25.9782   93.0661 N.pl3       1 EML      -0.2209
     11 C5         -3.8209   29.7026   88.2336 C.2         1 EML       0.1947
     12 N5         -6.9630   25.0724   92.1407 N.2         1 EML      -0.2182
     13 C6         -3.8182   28.8524   89.3696 C.2         1 EML       0.1969
     14 N6         -1.5099   31.9106   84.7728 N.2         1 EML      -0.3061
     15 C7         -4.6879   27.4977   90.8310 C.2         1 EML       0.0797
     16 N7         -5.0232   29.8237   87.6030 N.2         1 EML      -0.2843
     17 C8         -6.1018   25.4683   91.1877 C.2         1 EML       0.0048
     18 N8         -3.8845   31.3880   82.6579 N.4         1 EML       0.2558
     19 C9         -3.3417   27.7019   91.1201 C.2         1 EML      -0.0220
     20 C10        -6.1782   26.9959   92.7730 C.2         1 EML       0.0562
     21 C11        -2.4755   31.0531   86.7381 C.2         1 EML       0.1479
     22 C12        -3.3470   31.6422   85.9193 C.2         1 EML      -0.0058
     23 C13        -3.5267   32.5116   83.6154 C.3         1 EML       0.0137
     24 C14        -2.7820   32.0727   84.7873 C.2         1 EML       0.0332
     25 C15        -3.9364   31.7639   81.1678 C.3         1 EML       0.0096
     26 C16        -6.4592   31.0032   83.1314 C.3         1 EML      -0.0244
     27 C17        -4.4268   30.5895   80.2377 C.3         1 EML       0.0892
     28 C18        -2.4836   32.1221   80.6806 C.3         1 EML      -0.0168
     29 C19        -7.3892   29.4815   87.2753 C.3         1 EML      -0.0245
     30 C20        -4.8599   32.9987   80.8841 C.3         1 EML      -0.0168
     31 H1         -1.8819   30.0909   88.3412 H           1 EML       0.2327
     32 H2         -4.2427   28.6909   79.9651 H           1 EML       0.2097
     33 H3         -6.9544   27.9307   89.3849 H           1 EML       0.0922
     34 H4         -4.7901   30.3092   84.2732 H           1 EML       0.0812
     35 H5         -4.9451   29.5201   82.7345 H           1 EML       0.0812
     36 H6         -7.5599   25.9359   93.8550 H           1 EML       0.2577
     37 H7         -5.8801   24.9491   90.3349 H           1 EML       0.0660
     38 H8         -3.0716   30.7677   82.7110 H           1 EML       0.2059
     39 H9         -2.8250   27.2806   91.8927 H           1 EML       0.0468
     40 H10        -6.0511   27.8475   93.3236 H           1 EML       0.0974
     41 H11        -4.3264   31.6679   86.0645 H           1 EML       0.0280
     42 H12        -4.4264   33.0519   83.9237 H           1 EML       0.1036
     43 H13        -2.8985   33.2618   83.1390 H           1 EML       0.1036
     44 H14        -7.0906   30.3871   83.7788 H           1 EML       0.0281
     45 H15        -6.8390   30.9044   82.1130 H           1 EML       0.0281
     46 H16        -6.5485   32.0459   83.4517 H           1 EML       0.0281
     47 H17        -5.5158   30.5136   80.2491 H           1 EML       0.0616
     48 H18        -4.1380   30.7735   79.1978 H           1 EML       0.0616
     49 H19        -2.4492   32.2541   79.5964 H           1 EML       0.0288
     50 H20        -1.7842   31.3282   80.9477 H           1 EML       0.0288
     51 H21        -2.1162   33.0506   81.1163 H           1 EML       0.0288
     52 H22        -7.2214   30.1828   86.4532 H           1 EML       0.0384
     53 H23        -8.1328   29.9218   87.9472 H           1 EML       0.0384
     54 H24        -7.7923   28.5539   86.8576 H           1 EML       0.0384
     55 H25        -4.8246   33.2716   79.8247 H           1 EML       0.0288
     56 H26        -4.5376   33.8684   81.4609 H           1 EML       0.0288
     57 H27        -5.8961   32.7886   81.1424 H           1 EML       0.0288
@<TRIPOS>BOND
     1    15     1   1
     2     1    17   1
     3     1    20   2
     4     2    11   1
     5    21     2   1
     6    27     3   1
     7    14     4   1
     8    21     4   1
     9     7     5   2
    10     8     5   1
    11    13     6   2
    12     6    19   1
    13    16     7   1
    14     7    29   1
    15    13     8   1
    16     8    15   1
    17    18     9   1
    18     9    26   1
    19    10    12   1
    20    20    10   1
    21    11    13   1
    22    11    16   2
    23    17    12   2
    24    24    14   2
    25    15    19   2
    26    18    23   1
    27    25    18   1
    28    22    21   2
    29    24    22   1
    30    23    24   1
    31    25    27   1
    32    25    28   1
    33    25    30   1
    34     2    31   1
    35     3    32   1
    36     5    33   1
    37     9    34   1
    38     9    35   1
    39    10    36   1
    40    17    37   1
    41    18    38   1
    42    19    39   1
    43    20    40   1
    44    22    41   1
    45    23    42   1
    46    23    43   1
    47    26    44   1
    48    26    45   1
    49    26    46   1
    50    27    47   1
    51    27    48   1
    52    28    49   1
    53    28    50   1
    54    28    51   1
    55    29    52   1
    56    29    53   1
    57    29    54   1
    58    30    55   1
    59    30    56   1
    60    30    57   1
@<TRIPOS>SUBSTRUCTURE
     1  EML      1

