@<TRIPOS>MOLECULE
3myg_ligand_000
    57    60
SMALL
GAST_HUCK
****
This file was generated by PARSER (from files_GN.cpp)

@<TRIPOS>ATOM
      1 C1         -3.0539   31.6394   80.5231 C.2         1 EML       0.0195
      2 N1         -7.2972   28.3949   83.3800 N.pl3       1 EML      -0.2184
      3 O1         -8.7434   20.0120   80.7304 O.3         1 EML      -0.3892
      4 S1         -8.0498   27.6264   80.8911 S.3         1 EML       0.0206
      5 C2         -4.7924   31.6566   83.0601 C.2         1 EML       0.0730
      6 N2         -5.1831   28.8149   81.0569 N.2         1 EML      -0.3304
      7 C3         -5.6433   31.4855   84.0956 C.2         1 EML       0.0276
      8 N3         -4.7167   30.7105   82.1002 N.pl3       1 EML      -0.2136
      9 C4         -7.3779   22.5074   81.9823 C.3         1 EML      -0.0323
     10 N4         -2.1804   33.3106   79.4014 N.pl3       1 EML      -0.2209
     11 C5         -6.4210   29.4094   83.1761 C.2         1 EML       0.1947
     12 N5         -1.3281   33.0213   80.3387 N.2         1 EML      -0.2182
     13 C6         -5.4873   29.5909   82.1123 C.2         1 EML       0.1969
     14 N6         -8.7135   26.1146   80.8999 N.2         1 EML      -0.3061
     15 C7         -3.9507   30.6663   80.9923 C.2         1 EML       0.0797
     16 N7         -6.4109   30.3803   84.1266 N.2         1 EML      -0.2843
     17 C8         -1.8262   32.0009   81.0593 C.2         1 EML       0.0048
     18 N8         -8.4799   23.2410   81.2437 N.4         1 EML       0.2558
     19 C9         -4.2505   29.4687   80.3487 C.2         1 EML      -0.0220
     20 C10        -3.2497   32.5024   79.4592 C.2         1 EML       0.0562
     21 C11        -7.7090   27.4426   82.5514 C.2         1 EML       0.1479
     22 C12        -8.2064   26.2974   83.0108 C.2         1 EML      -0.0058
     23 C13        -9.2222   24.1709   82.1926 C.3         1 EML       0.0137
     24 C14        -8.7292   25.5317   82.0448 C.2         1 EML       0.0332
     25 C15        -9.2962   22.4058   80.2394 C.3         1 EML       0.0096
     26 C16        -6.3003   23.3912   82.6627 C.3         1 EML      -0.0244
     27 C17        -9.7448   21.0219   80.8246 C.3         1 EML       0.0892
     28 C18        -8.4281   22.1916   78.9465 C.3         1 EML      -0.0168
     29 C19        -5.7615   32.4663   85.1545 C.3         1 EML      -0.0245
     30 C20       -10.5916   23.1341   79.7120 C.3         1 EML      -0.0168
     31 H1         -7.6980   28.3758   84.2600 H           1 EML       0.2327
     32 H2         -9.0307   19.3142   81.3607 H           1 EML       0.2097
     33 H3         -4.2212   32.4696   83.0073 H           1 EML       0.0922
     34 H4         -6.8274   21.8611   81.3016 H           1 EML       0.0812
     35 H5         -7.8161   21.8643   82.7484 H           1 EML       0.0812
     36 H6         -2.0721   34.0241   78.7519 H           1 EML       0.2577
     37 H7         -1.3618   31.5631   81.8604 H           1 EML       0.0660
     38 H8         -7.9653   23.8789   80.6306 H           1 EML       0.2059
     39 H9         -3.8276   29.1318   79.4804 H           1 EML       0.0468
     40 H10        -4.0665   32.5483   78.8485 H           1 EML       0.0974
     41 H11        -8.2061   26.0479   83.9765 H           1 EML       0.0280
     42 H12        -9.1411   23.8421   83.2338 H           1 EML       0.1036
     43 H13       -10.2944   24.2174   82.0086 H           1 EML       0.1036
     44 H14        -5.4899   22.7662   83.0432 H           1 EML       0.0281
     45 H15        -6.7169   23.9332   83.5144 H           1 EML       0.0281
     46 H16        -5.8894   24.1059   81.9527 H           1 EML       0.0281
     47 H17       -10.0173   21.1477   81.8762 H           1 EML       0.0616
     48 H18       -10.6223   20.6288   80.3012 H           1 EML       0.0616
     49 H19        -8.9606   21.6040   78.1963 H           1 EML       0.0288
     50 H20        -7.4964   21.6662   79.1472 H           1 EML       0.0288
     51 H21        -8.1659   23.1544   78.4976 H           1 EML       0.0288
     52 H22        -6.5012   32.1650   85.9007 H           1 EML       0.0384
     53 H23        -6.0678   33.4319   84.7422 H           1 EML       0.0384
     54 H24        -4.7989   32.5844   85.6554 H           1 EML       0.0384
     55 H25       -11.0095   22.6379   78.8296 H           1 EML       0.0288
     56 H26       -10.3777   24.1705   79.4368 H           1 EML       0.0288
     57 H27       -11.3897   23.1349   80.4547 H           1 EML       0.0288
@<TRIPOS>BOND
     1    15     1   1
     2     1    17   1
     3     1    20   2
     4     2    11   1
     5    21     2   1
     6    27     3   1
     7    14     4   1
     8    21     4   1
     9     7     5   2
    10     8     5   1
    11    13     6   2
    12     6    19   1
    13    16     7   1
    14     7    29   1
    15    13     8   1
    16     8    15   1
    17    18     9   1
    18     9    26   1
    19    10    12   1
    20    20    10   1
    21    11    13   1
    22    11    16   2
    23    17    12   2
    24    24    14   2
    25    15    19   2
    26    18    23   1
    27    25    18   1
    28    22    21   2
    29    24    22   1
    30    23    24   1
    31    25    27   1
    32    25    28   1
    33    25    30   1
    34     2    31   1
    35     3    32   1
    36     5    33   1
    37     9    34   1
    38     9    35   1
    39    10    36   1
    40    17    37   1
    41    18    38   1
    42    19    39   1
    43    20    40   1
    44    22    41   1
    45    23    42   1
    46    23    43   1
    47    26    44   1
    48    26    45   1
    49    26    46   1
    50    27    47   1
    51    27    48   1
    52    28    49   1
    53    28    50   1
    54    28    51   1
    55    29    52   1
    56    29    53   1
    57    29    54   1
    58    30    55   1
    59    30    56   1
    60    30    57   1
@<TRIPOS>SUBSTRUCTURE
     1  EML      1

