@<TRIPOS>MOLECULE
3myg_ligand_060
    57    60
SMALL
GAST_HUCK
****
This file was generated by PARSER (from files_GN.cpp)

@<TRIPOS>ATOM
      1 C1         -5.1695   43.4278   80.9573 C.2         1 EML       0.0195
      2 N1          0.6167   42.3074   82.2876 N.pl3       1 EML      -0.2184
      3 O1         -0.2063   34.4645   84.9192 O.3         1 EML      -0.3892
      4 S1          1.3023   40.5867   84.2038 S.3         1 EML       0.0206
      5 C2         -2.2724   44.5715   80.4073 C.2         1 EML       0.0730
      6 N2         -2.4382   41.9512   82.7156 N.2         1 EML      -0.3304
      7 C3         -0.9585   44.8867   80.3308 C.2         1 EML       0.0276
      8 N3         -2.6801   43.5723   81.2217 N.pl3       1 EML      -0.2136
      9 C4         -3.0549   36.7504   84.6616 C.3         1 EML      -0.0323
     10 N4         -7.0489   43.3318   79.8114 N.pl3       1 EML      -0.2209
     11 C5         -0.3938   43.0685   81.7875 C.2         1 EML       0.1947
     12 N5         -7.1213   44.3968   80.5458 N.2         1 EML      -0.2182
     13 C6         -1.7942   42.8369   81.9367 C.2         1 EML       0.1969
     14 N6          0.1882   39.3697   84.3124 N.2         1 EML      -0.3061
     15 C7         -3.9110   43.0791   81.4873 C.2         1 EML       0.0797
     16 N7         -0.0640   44.1315   81.0054 N.2         1 EML      -0.2843
     17 C8         -5.9837   44.5151   81.2501 C.2         1 EML       0.0048
     18 N8         -1.7477   37.0948   83.9757 N.4         1 EML       0.2558
     19 C9         -3.7391   42.0720   82.4372 C.2         1 EML      -0.0220
     20 C10        -5.8922   42.6940   80.0256 C.2         1 EML       0.0562
     21 C11         0.5030   41.0776   82.7909 C.2         1 EML       0.1479
     22 C12        -0.3055   40.1183   82.3428 C.2         1 EML      -0.0058
     23 C13        -1.8137   38.4819   83.3669 C.3         1 EML       0.0137
     24 C14        -0.5474   39.1953   83.2786 C.2         1 EML       0.0332
     25 C15        -1.0388   36.0091   83.1493 C.3         1 EML       0.0096
     26 C16        -4.2817   36.4396   83.7700 C.3         1 EML      -0.0244
     27 C17        -1.1294   34.6003   83.8379 C.3         1 EML       0.0892
     28 C18         0.4916   36.3454   83.0436 C.3         1 EML      -0.0168
     29 C19        -0.4870   45.9794   79.5029 C.3         1 EML      -0.0245
     30 C20        -1.5659   35.8279   81.6814 C.3         1 EML      -0.0168
     31 H1          1.5087   42.6887   82.2623 H           1 EML       0.2327
     32 H2         -0.3677   33.5663   85.2820 H           1 EML       0.2097
     33 H3         -2.9362   45.0839   79.8763 H           1 EML       0.0922
     34 H4         -3.3327   37.5817   85.3170 H           1 EML       0.0812
     35 H5         -2.9157   35.9171   85.3500 H           1 EML       0.0812
     36 H6         -7.7439   43.0238   79.2099 H           1 EML       0.2577
     37 H7         -5.7942   45.2537   81.9290 H           1 EML       0.0660
     38 H8         -1.1237   37.2142   84.7769 H           1 EML       0.2059
     39 H9         -4.4765   41.5128   82.8701 H           1 EML       0.0468
     40 H10        -5.5973   41.8259   79.5759 H           1 EML       0.0974
     41 H11        -0.8491   40.2237   81.5118 H           1 EML       0.0280
     42 H12        -2.4402   39.1460   83.9708 H           1 EML       0.1036
     43 H13        -2.3042   38.4521   82.3942 H           1 EML       0.1036
     44 H14        -5.1936   36.4869   84.3677 H           1 EML       0.0281
     45 H15        -4.2131   35.4337   83.3571 H           1 EML       0.0281
     46 H16        -4.3655   37.1604   82.9566 H           1 EML       0.0281
     47 H17        -2.1366   34.4153   84.2158 H           1 EML       0.0616
     48 H18        -0.9239   33.8103   83.1161 H           1 EML       0.0616
     49 H19         1.0592   35.5178   82.6099 H           1 EML       0.0288
     50 H20         0.9075   36.5564   84.0325 H           1 EML       0.0288
     51 H21         0.6664   37.2130   82.4049 H           1 EML       0.0288
     52 H22         0.5983   46.0818   79.5567 H           1 EML       0.0384
     53 H23        -0.9348   46.9171   79.8356 H           1 EML       0.0384
     54 H24        -0.7630   45.8041   78.4619 H           1 EML       0.0384
     55 H25        -1.0378   35.0175   81.1730 H           1 EML       0.0288
     56 H26        -1.4177   36.7234   81.0794 H           1 EML       0.0288
     57 H27        -2.6229   35.5828   81.6703 H           1 EML       0.0288
@<TRIPOS>BOND
     1    15     1   1
     2     1    17   1
     3     1    20   2
     4     2    11   1
     5    21     2   1
     6    27     3   1
     7    14     4   1
     8    21     4   1
     9     7     5   2
    10     8     5   1
    11    13     6   2
    12     6    19   1
    13    16     7   1
    14     7    29   1
    15    13     8   1
    16     8    15   1
    17    18     9   1
    18     9    26   1
    19    10    12   1
    20    20    10   1
    21    11    13   1
    22    11    16   2
    23    17    12   2
    24    24    14   2
    25    15    19   2
    26    18    23   1
    27    25    18   1
    28    22    21   2
    29    24    22   1
    30    23    24   1
    31    25    27   1
    32    25    28   1
    33    25    30   1
    34     2    31   1
    35     3    32   1
    36     5    33   1
    37     9    34   1
    38     9    35   1
    39    10    36   1
    40    17    37   1
    41    18    38   1
    42    19    39   1
    43    20    40   1
    44    22    41   1
    45    23    42   1
    46    23    43   1
    47    26    44   1
    48    26    45   1
    49    26    46   1
    50    27    47   1
    51    27    48   1
    52    28    49   1
    53    28    50   1
    54    28    51   1
    55    29    52   1
    56    29    53   1
    57    29    54   1
    58    30    55   1
    59    30    56   1
    60    30    57   1
@<TRIPOS>SUBSTRUCTURE
     1  EML      1

