@<TRIPOS>MOLECULE
3myg_ligand_041
    57    60
SMALL
GAST_HUCK
****
This file was generated by PARSER (from files_GN.cpp)

@<TRIPOS>ATOM
      1 C1         -5.6751   29.0482   76.8834 C.2         1 EML       0.0195
      2 N1         -7.0026   29.5709   82.8004 N.pl3       1 EML      -0.2184
      3 O1         -9.4866   21.9717   83.5651 O.3         1 EML      -0.3892
      4 S1         -8.1782   28.1335   84.6676 S.3         1 EML       0.0206
      5 C2         -5.2253   30.9759   79.3616 C.2         1 EML       0.0730
      6 N2         -6.6967   27.9074   80.1345 N.2         1 EML      -0.3304
      7 C3         -5.1590   31.6449   80.5373 C.2         1 EML       0.0276
      8 N3         -5.8093   29.7566   79.3025 N.pl3       1 EML      -0.2136
      9 C4        -11.2220   23.8522   81.6352 C.3         1 EML      -0.0323
     10 N4         -5.3407   29.9059   74.8751 N.pl3       1 EML      -0.2209
     11 C5         -6.3787   29.8966   81.6413 C.2         1 EML       0.1947
     12 N5         -5.4063   28.6223   74.7080 N.2         1 EML      -0.2182
     13 C6         -6.3327   29.1700   80.4130 C.2         1 EML       0.1969
     14 N6         -9.2876   27.0529   84.0999 N.2         1 EML      -0.3061
     15 C7         -5.9495   28.8890   78.2706 C.2         1 EML       0.0797
     16 N7         -5.7508   31.1039   81.6227 N.2         1 EML      -0.2843
     17 C8         -5.6115   28.0526   75.9070 C.2         1 EML       0.0048
     18 N8        -10.1576   24.6152   82.4086 N.4         1 EML       0.2558
     19 C9         -6.4761   27.7201   78.8226 C.2         1 EML      -0.0220
     20 C10        -5.5081   30.2297   76.1658 C.2         1 EML       0.0562
     21 C11        -7.8762   28.6034   83.0617 C.2         1 EML       0.1479
     22 C12        -8.7293   28.0128   82.2318 C.2         1 EML      -0.0058
     23 C13       -10.3072   26.1045   82.1454 C.3         1 EML       0.0137
     24 C14        -9.4424   27.0517   82.8308 C.2         1 EML       0.0332
     25 C15        -8.7393   23.9985   82.3000 C.3         1 EML       0.0096
     26 C16       -12.6898   24.3569   81.6188 C.3         1 EML      -0.0244
     27 C17        -8.7138   22.4251   82.4453 C.3         1 EML       0.0892
     28 C18        -7.8018   24.5168   83.4543 C.3         1 EML      -0.0168
     29 C19        -4.5042   32.9296   80.6529 C.3         1 EML      -0.0245
     30 C20        -8.0461   24.3307   80.9349 C.3         1 EML      -0.0168
     31 H1         -6.7953   30.1452   83.5572 H           1 EML       0.2327
     32 H2         -9.5360   20.9930   83.4646 H           1 EML       0.2097
     33 H3         -4.7839   31.3590   78.5576 H           1 EML       0.0922
     34 H4        -11.3038   22.8578   82.0626 H           1 EML       0.0812
     35 H5        -10.9098   23.7394   80.5977 H           1 EML       0.0812
     36 H6         -5.2126   30.5435   74.1565 H           1 EML       0.2577
     37 H7         -5.7135   27.0479   76.0607 H           1 EML       0.0660
     38 H8        -10.4205   24.5024   83.3879 H           1 EML       0.2059
     39 H9         -6.7090   26.8576   78.3222 H           1 EML       0.0468
     40 H10        -5.5523   31.1835   76.5224 H           1 EML       0.0974
     41 H11        -8.8550   28.2862   81.2829 H           1 EML       0.0280
     42 H12       -11.2957   26.4353   82.4700 H           1 EML       0.1036
     43 H13       -10.2591   26.2720   81.0620 H           1 EML       0.1036
     44 H14       -13.3337   23.5996   81.1646 H           1 EML       0.0281
     45 H15       -12.7808   25.2714   81.0274 H           1 EML       0.0281
     46 H16       -13.0385   24.5439   82.6377 H           1 EML       0.0281
     47 H17        -9.0962   21.9369   81.5436 H           1 EML       0.0616
     48 H18        -7.6914   22.0465   82.5876 H           1 EML       0.0616
     49 H19        -6.8944   23.9110   83.5567 H           1 EML       0.0288
     50 H20        -8.3274   24.5087   84.4138 H           1 EML       0.0288
     51 H21        -7.4456   25.5224   83.2550 H           1 EML       0.0288
     52 H22        -4.5759   33.3251   81.6718 H           1 EML       0.0384
     53 H23        -4.9720   33.6463   79.9698 H           1 EML       0.0384
     54 H24        -3.4466   32.8290   80.3949 H           1 EML       0.0384
     55 H25        -7.0597   23.8648   80.8662 H           1 EML       0.0288
     56 H26        -7.9025   25.4072   80.8221 H           1 EML       0.0288
     57 H27        -8.6412   23.9764   80.0919 H           1 EML       0.0288
@<TRIPOS>BOND
     1    15     1   1
     2     1    17   1
     3     1    20   2
     4     2    11   1
     5    21     2   1
     6    27     3   1
     7    14     4   1
     8    21     4   1
     9     7     5   2
    10     8     5   1
    11    13     6   2
    12     6    19   1
    13    16     7   1
    14     7    29   1
    15    13     8   1
    16     8    15   1
    17    18     9   1
    18     9    26   1
    19    10    12   1
    20    20    10   1
    21    11    13   1
    22    11    16   2
    23    17    12   2
    24    24    14   2
    25    15    19   2
    26    18    23   1
    27    25    18   1
    28    22    21   2
    29    24    22   1
    30    23    24   1
    31    25    27   1
    32    25    28   1
    33    25    30   1
    34     2    31   1
    35     3    32   1
    36     5    33   1
    37     9    34   1
    38     9    35   1
    39    10    36   1
    40    17    37   1
    41    18    38   1
    42    19    39   1
    43    20    40   1
    44    22    41   1
    45    23    42   1
    46    23    43   1
    47    26    44   1
    48    26    45   1
    49    26    46   1
    50    27    47   1
    51    27    48   1
    52    28    49   1
    53    28    50   1
    54    28    51   1
    55    29    52   1
    56    29    53   1
    57    29    54   1
    58    30    55   1
    59    30    56   1
    60    30    57   1
@<TRIPOS>SUBSTRUCTURE
     1  EML      1

