@<TRIPOS>MOLECULE
3myg_ligand_066
    57    60
SMALL
GAST_HUCK
****
This file was generated by PARSER (from files_GN.cpp)

@<TRIPOS>ATOM
      1 C1         -7.1417   28.4579   78.8200 C.2         1 EML       0.0195
      2 N1         -9.7069   27.5009   84.2803 N.pl3       1 EML      -0.2184
      3 O1        -11.3623   21.5397   86.0710 O.3         1 EML      -0.3892
      4 S1        -11.6020   26.5168   85.7249 S.3         1 EML       0.0206
      5 C2         -6.9538   29.3182   81.8038 C.2         1 EML       0.0730
      6 N2         -9.5211   27.0631   81.0976 N.2         1 EML      -0.3304
      7 C3         -7.0600   29.5849   83.1241 C.2         1 EML       0.0276
      8 N3         -7.8006   28.4330   81.2320 N.pl3       1 EML      -0.2136
      9 C4        -11.1497   22.2187   82.5922 C.3         1 EML      -0.0323
     10 N4         -5.4544   28.7777   77.4426 N.pl3       1 EML      -0.2209
     11 C5         -8.8723   28.0065   83.3389 C.2         1 EML       0.1947
     12 N5         -6.5207   29.1340   76.7967 N.2         1 EML      -0.2182
     13 C6         -8.7689   27.7893   81.9359 C.2         1 EML       0.1969
     14 N6        -12.4997   25.3019   85.0431 N.2         1 EML      -0.3061
     15 C7         -7.9277   28.0817   79.9341 C.2         1 EML       0.0797
     16 N7         -7.9907   28.9198   83.8366 N.2         1 EML      -0.2843
     17 C8         -7.5833   28.9510   77.5970 C.2         1 EML       0.0048
     18 N8        -12.5387   22.4975   83.1329 N.4         1 EML       0.2558
     19 C9         -9.0229   27.2256   79.8662 C.2         1 EML      -0.0220
     20 C10        -5.7649   28.3618   78.6795 C.2         1 EML       0.0562
     21 C11       -10.6838   26.6008   84.2972 C.2         1 EML       0.1479
     22 C12       -11.0672   25.6545   83.4366 C.2         1 EML      -0.0058
     23 C13       -12.8769   23.9742   83.0957 C.3         1 EML       0.0137
     24 C14       -12.0993   24.9178   83.8892 C.2         1 EML       0.0332
     25 C15       -13.1207   21.6125   84.2549 C.3         1 EML       0.0096
     26 C16        -9.9253   22.2929   83.5403 C.3         1 EML      -0.0244
     27 C17       -12.6868   21.9470   85.7278 C.3         1 EML       0.0892
     28 C18       -12.8205   20.0969   83.9780 C.3         1 EML      -0.0168
     29 C19        -6.2300   30.5699   83.7829 C.3         1 EML      -0.0245
     30 C20       -14.6924   21.7306   84.2254 C.3         1 EML      -0.0168
     31 H1         -9.5674   27.9006   85.1524 H           1 EML       0.2327
     32 H2        -11.1361   22.0809   86.8750 H           1 EML       0.2097
     33 H3         -6.2856   29.8023   81.2511 H           1 EML       0.0922
     34 H4        -10.9465   22.8961   81.7590 H           1 EML       0.0812
     35 H5        -11.1393   21.2266   82.1352 H           1 EML       0.0812
     36 H6         -4.5581   28.7984   77.0758 H           1 EML       0.2577
     37 H7         -8.5519   29.1585   77.3451 H           1 EML       0.0660
     38 H8        -13.0965   22.1607   82.3393 H           1 EML       0.2059
     39 H9         -9.3777   26.7696   79.0252 H           1 EML       0.0468
     40 H10        -5.1043   27.9994   79.3706 H           1 EML       0.0974
     41 H11       -10.6033   25.4407   82.5948 H           1 EML       0.0280
     42 H12       -13.9269   24.1260   83.3342 H           1 EML       0.1036
     43 H13       -12.8084   24.2919   82.0540 H           1 EML       0.1036
     44 H14        -9.0156   22.4713   82.9582 H           1 EML       0.0281
     45 H15        -9.7994   21.3541   84.0761 H           1 EML       0.0281
     46 H16       -10.0279   23.0997   84.2642 H           1 EML       0.0281
     47 H17       -12.7888   23.0268   85.9141 H           1 EML       0.0616
     48 H18       -13.3469   21.4388   86.4428 H           1 EML       0.0616
     49 H19       -13.3259   19.4542   84.7002 H           1 EML       0.0288
     50 H20       -11.7559   19.8850   84.0508 H           1 EML       0.0288
     51 H21       -13.1587   19.8179   82.9769 H           1 EML       0.0288
     52 H22        -6.4655   30.6430   84.8470 H           1 EML       0.0384
     53 H23        -6.3882   31.5529   83.3338 H           1 EML       0.0384
     54 H24        -5.1787   30.2984   83.6841 H           1 EML       0.0384
     55 H25       -15.1679   20.9478   84.8302 H           1 EML       0.0288
     56 H26       -15.0706   21.6353   83.2026 H           1 EML       0.0288
     57 H27       -15.0366   22.6858   84.6302 H           1 EML       0.0288
@<TRIPOS>BOND
     1    15     1   1
     2     1    17   1
     3     1    20   2
     4     2    11   1
     5    21     2   1
     6    27     3   1
     7    14     4   1
     8    21     4   1
     9     7     5   2
    10     8     5   1
    11    13     6   2
    12     6    19   1
    13    16     7   1
    14     7    29   1
    15    13     8   1
    16     8    15   1
    17    18     9   1
    18     9    26   1
    19    10    12   1
    20    20    10   1
    21    11    13   1
    22    11    16   2
    23    17    12   2
    24    24    14   2
    25    15    19   2
    26    18    23   1
    27    25    18   1
    28    22    21   2
    29    24    22   1
    30    23    24   1
    31    25    27   1
    32    25    28   1
    33    25    30   1
    34     2    31   1
    35     3    32   1
    36     5    33   1
    37     9    34   1
    38     9    35   1
    39    10    36   1
    40    17    37   1
    41    18    38   1
    42    19    39   1
    43    20    40   1
    44    22    41   1
    45    23    42   1
    46    23    43   1
    47    26    44   1
    48    26    45   1
    49    26    46   1
    50    27    47   1
    51    27    48   1
    52    28    49   1
    53    28    50   1
    54    28    51   1
    55    29    52   1
    56    29    53   1
    57    29    54   1
    58    30    55   1
    59    30    56   1
    60    30    57   1
@<TRIPOS>SUBSTRUCTURE
     1  EML      1

