@<TRIPOS>MOLECULE
3myg_ligand_053
    57    60
SMALL
GAST_HUCK
****
This file was generated by PARSER (from files_GN.cpp)

@<TRIPOS>ATOM
      1 C1          5.7119   37.4666   87.5085 C.2         1 EML       0.0195
      2 N1          0.7332   39.9492   85.3012 N.pl3       1 EML      -0.2184
      3 O1         -4.6360   44.7436   83.3152 O.3         1 EML      -0.3892
      4 S1         -1.3840   38.7519   84.0464 S.3         1 EML       0.0206
      5 C2          3.1080   36.6274   85.9398 C.2         1 EML       0.0730
      6 N2          3.4028   40.0547   86.5825 N.2         1 EML      -0.3304
      7 C3          1.9094   36.4850   85.3339 C.2         1 EML       0.0276
      8 N3          3.5139   37.8475   86.3597 N.pl3       1 EML      -0.2136
      9 C4         -5.1517   41.0560   85.1382 C.3         1 EML      -0.0323
     10 N4          6.9613   35.8572   88.3885 N.pl3       1 EML      -0.2209
     11 C5          1.5092   38.8457   85.4959 C.2         1 EML       0.1947
     12 N5          7.7671   36.8495   88.1414 N.2         1 EML      -0.2182
     13 C6          2.7743   38.9579   86.1285 C.2         1 EML       0.1969
     14 N6         -2.5567   39.8398   83.6699 N.2         1 EML      -0.3061
     15 C7          4.6468   38.2372   86.9961 C.2         1 EML       0.0797
     16 N7          1.1533   37.5823   85.1332 N.2         1 EML      -0.2843
     17 C8          7.0512   37.8549   87.6290 C.2         1 EML       0.0048
     18 N8         -4.5089   42.3290   84.6304 N.4         1 EML       0.2558
     19 C9          4.5562   39.6276   87.1109 C.2         1 EML      -0.0220
     20 C10         5.7117   36.1682   88.0242 C.2         1 EML       0.0562
     21 C11        -0.4808   40.0275   84.7400 C.2         1 EML       0.1479
     22 C12        -1.1505   41.1748   84.6506 C.2         1 EML      -0.0058
     23 C13        -3.2946   42.1053   83.7346 C.3         1 EML       0.0137
     24 C14        -2.3521   41.0387   84.0720 C.2         1 EML       0.0332
     25 C15        -4.4225   43.5475   85.5616 C.3         1 EML       0.0096
     26 C16        -5.7503   40.1842   84.0028 C.3         1 EML      -0.0244
     27 C17        -4.3801   44.9039   84.7172 C.3         1 EML       0.0892
     28 C18        -3.1665   43.4735   86.4976 C.3         1 EML      -0.0168
     29 C19         1.4209   35.1930   84.8942 C.3         1 EML      -0.0245
     30 C20        -5.6718   43.6740   86.5295 C.3         1 EML      -0.0168
     31 H1          1.1074   40.7928   85.6145 H           1 EML       0.2327
     32 H2         -5.5489   44.3841   83.2511 H           1 EML       0.2097
     33 H3          3.6921   35.8362   86.0444 H           1 EML       0.0922
     34 H4         -6.0024   41.2714   85.7795 H           1 EML       0.0812
     35 H5         -4.4448   40.4828   85.7421 H           1 EML       0.0812
     36 H6          7.2287   35.0094   88.7562 H           1 EML       0.2577
     37 H7          7.4429   38.7581   87.3459 H           1 EML       0.0660
     38 H8         -5.2122   42.6690   83.9760 H           1 EML       0.2059
     39 H9          5.2437   40.2399   87.5503 H           1 EML       0.0468
     40 H10         4.9073   35.5509   88.1264 H           1 EML       0.0974
     41 H11        -0.7928   42.0436   84.9901 H           1 EML       0.0280
     42 H12        -2.7305   43.0316   83.6234 H           1 EML       0.1036
     43 H13        -3.6790   41.9002   82.7271 H           1 EML       0.1036
     44 H14        -6.2487   39.3119   84.4448 H           1 EML       0.0281
     45 H15        -4.9667   39.8295   83.3280 H           1 EML       0.0281
     46 H16        -6.4788   40.7626   83.4213 H           1 EML       0.0281
     47 H17        -5.1209   45.6425   85.0776 H           1 EML       0.0616
     48 H18        -3.3958   45.3923   84.8005 H           1 EML       0.0616
     49 H19        -3.1717   44.2968   87.2348 H           1 EML       0.0288
     50 H20        -2.2447   43.5671   85.9170 H           1 EML       0.0288
     51 H21        -3.1453   42.5207   87.0403 H           1 EML       0.0288
     52 H22         0.4426   35.2737   84.4140 H           1 EML       0.0384
     53 H23         1.3253   34.5211   85.7493 H           1 EML       0.0384
     54 H24         2.1155   34.7520   84.1770 H           1 EML       0.0384
     55 H25        -5.6736   44.6235   87.0820 H           1 EML       0.0288
     56 H26        -5.6609   42.8797   87.2929 H           1 EML       0.0288
     57 H27        -6.6093   43.6043   85.9542 H           1 EML       0.0288
@<TRIPOS>BOND
     1    15     1   1
     2     1    17   1
     3     1    20   2
     4     2    11   1
     5    21     2   1
     6    27     3   1
     7    14     4   1
     8    21     4   1
     9     7     5   2
    10     8     5   1
    11    13     6   2
    12     6    19   1
    13    16     7   1
    14     7    29   1
    15    13     8   1
    16     8    15   1
    17    18     9   1
    18     9    26   1
    19    10    12   1
    20    20    10   1
    21    11    13   1
    22    11    16   2
    23    17    12   2
    24    24    14   2
    25    15    19   2
    26    18    23   1
    27    25    18   1
    28    22    21   2
    29    24    22   1
    30    23    24   1
    31    25    27   1
    32    25    28   1
    33    25    30   1
    34     2    31   1
    35     3    32   1
    36     5    33   1
    37     9    34   1
    38     9    35   1
    39    10    36   1
    40    17    37   1
    41    18    38   1
    42    19    39   1
    43    20    40   1
    44    22    41   1
    45    23    42   1
    46    23    43   1
    47    26    44   1
    48    26    45   1
    49    26    46   1
    50    27    47   1
    51    27    48   1
    52    28    49   1
    53    28    50   1
    54    28    51   1
    55    29    52   1
    56    29    53   1
    57    29    54   1
    58    30    55   1
    59    30    56   1
    60    30    57   1
@<TRIPOS>SUBSTRUCTURE
     1  EML      1

