@<TRIPOS>MOLECULE
3n7a_ligand_014
    21    21
SMALL
GAST_HUCK
****
This file was generated by PARSER (from files_GN.cpp)

@<TRIPOS>ATOM
      1 C2         43.6979    5.8909   25.7464 C.3         1 FA1      -0.0257
      2 C3         45.2336    6.0839   25.8657 C.3         1 FA1       0.0989
      3 O3         45.6216    7.3382   25.2963 O.3         1 FA1      -0.3849
      4 C4         45.6548    6.0443   27.3634 C.3         1 FA1       0.1558
      5 O4         45.6665    4.7033   27.8654 O.3         1 FA1      -0.3559
      6 C5         44.8018    6.8573   28.2186 C.2         1 FA1       0.0179
      7 C6         43.5663    7.2613   27.8728 C.2         1 FA1      -0.0502
      8 C          42.6559    8.1810   25.7952 C.2         1 FA1       0.0192
      9 O1         42.9970    9.4222   26.2141 O.co2       1 FA1      -0.5675
     10 O30        41.6254    6.4173   26.9119 O.3         1 FA1      -0.4422
     11 O2         42.0168    8.0933   24.6061 O.co2       1 FA1      -0.5675
     12 C1         42.9128    6.9524   26.5950 C.3         1 FA1       0.0728
     13 H1         43.4569    4.8878   26.1103 H           1 FA1       0.0171
     14 H2         43.4039    5.9180   24.6931 H           1 FA1       0.0171
     15 H3         45.7508    5.2901   25.3193 H           1 FA1       0.0667
     16 H4         45.6512    7.1864   24.3273 H           1 FA1       0.2104
     17 H5         46.6796    6.4172   27.4378 H           1 FA1       0.1059
     18 H6         44.7641    4.3430   27.7268 H           1 FA1       0.2180
     19 H7         45.1441    7.0980   29.1209 H           1 FA1       0.1561
     20 H8         43.0643    7.8218   28.5242 H           1 FA1       0.0503
     21 H9         41.7837    5.4991   27.2199 H           1 FA1       0.1879
@<TRIPOS>BOND
     1     1     2   1
     2    12     1   1
     3     2     3   1
     4     2     4   1
     5     4     5   1
     6     6     4   1
     7     7     6   2
     8    12     7   1
     9     8     9  ar
    10     8    11  ar
    11     8    12   1
    12    12    10   1
    13     1    13   1
    14     1    14   1
    15     2    15   1
    16     3    16   1
    17     4    17   1
    18     5    18   1
    19     6    19   1
    20     7    20   1
    21    10    21   1
@<TRIPOS>SUBSTRUCTURE
     1  FA1      1

