@<TRIPOS>MOLECULE
3n7a_ligand_008
    21    21
SMALL
GAST_HUCK
****
This file was generated by PARSER (from files_GN.cpp)

@<TRIPOS>ATOM
      1 C2         45.9371    5.1792   23.4232 C.3         1 FA1      -0.0257
      2 C3         45.3109    5.7709   24.7160 C.3         1 FA1       0.0989
      3 O3         44.1893    6.5969   24.3888 O.3         1 FA1      -0.3849
      4 C4         44.8546    4.6302   25.6710 C.3         1 FA1       0.1558
      5 O4         45.9490    4.1250   26.4427 O.3         1 FA1      -0.3559
      6 C5         44.2027    3.5247   24.9832 C.2         1 FA1       0.0179
      7 C6         44.2122    3.3538   23.6475 C.2         1 FA1      -0.0502
      8 C          44.0684    4.8811   21.7406 C.2         1 FA1       0.0192
      9 O1         42.7201    4.8847   21.8468 O.co2       1 FA1      -0.5675
     10 O30        45.7472    3.2760   21.9168 O.3         1 FA1      -0.4422
     11 O2         44.6004    5.4685   20.6447 O.co2       1 FA1      -0.5675
     12 C1         44.9642    4.1843   22.7006 C.3         1 FA1       0.0728
     13 H1         46.8504    4.6436   23.7035 H           1 FA1       0.0171
     14 H2         46.2468    5.9920   22.7543 H           1 FA1       0.0171
     15 H3         46.0375    6.4042   25.2274 H           1 FA1       0.0667
     16 H4         44.5629    7.3624   23.9052 H           1 FA1       0.2104
     17 H5         44.1428    5.0429   26.3847 H           1 FA1       0.1059
     18 H6         46.7514    4.2217   25.8872 H           1 FA1       0.2180
     19 H7         43.7044    2.8716   25.5371 H           1 FA1       0.1561
     20 H8         43.6667    2.6038   23.2815 H           1 FA1       0.0503
     21 H9         45.0942    2.7216   21.4276 H           1 FA1       0.1879
@<TRIPOS>BOND
     1     1     2   1
     2    12     1   1
     3     2     3   1
     4     2     4   1
     5     4     5   1
     6     6     4   1
     7     7     6   2
     8    12     7   1
     9     8     9  ar
    10     8    11  ar
    11     8    12   1
    12    12    10   1
    13     1    13   1
    14     1    14   1
    15     2    15   1
    16     3    16   1
    17     4    17   1
    18     5    18   1
    19     6    19   1
    20     7    20   1
    21    10    21   1
@<TRIPOS>SUBSTRUCTURE
     1  FA1      1

