@<TRIPOS>MOLECULE
3n7a_ligand_013
    21    21
SMALL
GAST_HUCK
****
This file was generated by PARSER (from files_GN.cpp)

@<TRIPOS>ATOM
      1 C2         44.5063    7.7581   25.5746 C.3         1 FA1      -0.0257
      2 C3         43.4207    8.2973   26.5684 C.3         1 FA1       0.0989
      3 O3         42.9202    9.5489   26.1086 O.3         1 FA1      -0.3849
      4 C4         42.2225    7.3164   26.7868 C.3         1 FA1       0.1558
      5 O4         41.5577    7.6376   28.0126 O.3         1 FA1      -0.3559
      6 C5         42.6468    5.9207   26.7612 C.2         1 FA1       0.0179
      7 C6         43.5498    5.4842   25.8664 C.2         1 FA1      -0.0502
      8 C          43.2210    6.5106   23.7234 C.2         1 FA1       0.0192
      9 O1         43.2398    5.5774   22.7333 O.co2       1 FA1      -0.5675
     10 O30        45.3605    5.8151   24.3947 O.3         1 FA1      -0.4422
     11 O2         42.2922    7.4986   23.6172 O.co2       1 FA1      -0.5675
     12 C1         44.1473    6.3974   24.8868 C.3         1 FA1       0.0728
     13 H1         45.4353    7.6108   26.1342 H           1 FA1       0.0171
     14 H2         44.7449    8.5051   24.8089 H           1 FA1       0.0171
     15 H3         43.8898    8.4683   27.5399 H           1 FA1       0.0667
     16 H4         42.0835    9.7093   26.5889 H           1 FA1       0.2104
     17 H5         41.4850    7.4643   25.9847 H           1 FA1       0.1059
     18 H6         40.6255    7.3525   27.8742 H           1 FA1       0.2180
     19 H7         42.2865    5.2845   27.4348 H           1 FA1       0.1561
     20 H8         43.8468    4.5452   25.9068 H           1 FA1       0.0503
     21 H9         45.8466    6.5463   23.9515 H           1 FA1       0.1879
@<TRIPOS>BOND
     1     1     2   1
     2    12     1   1
     3     2     3   1
     4     2     4   1
     5     4     5   1
     6     6     4   1
     7     7     6   2
     8    12     7   1
     9     8     9  ar
    10     8    11  ar
    11     8    12   1
    12    12    10   1
    13     1    13   1
    14     1    14   1
    15     2    15   1
    16     3    16   1
    17     4    17   1
    18     5    18   1
    19     6    19   1
    20     7    20   1
    21    10    21   1
@<TRIPOS>SUBSTRUCTURE
     1  FA1      1

