@<TRIPOS>MOLECULE
3n7a_ligand_010
    21    21
SMALL
GAST_HUCK
****
This file was generated by PARSER (from files_GN.cpp)

@<TRIPOS>ATOM
      1 C2         43.1313    6.5783   25.9423 C.3         1 FA1      -0.0257
      2 C3         44.1994    6.0011   26.9387 C.3         1 FA1       0.0989
      3 O3         44.6922    4.7549   26.4414 O.3         1 FA1      -0.3849
      4 C4         45.3882    6.9772   27.2201 C.3         1 FA1       0.1558
      5 O4         46.1040    6.6588   28.4141 O.3         1 FA1      -0.3559
      6 C5         44.9371    8.3628   27.2667 C.2         1 FA1       0.0179
      7 C6         44.0581    8.8353   26.3630 C.2         1 FA1      -0.0502
      8 C          44.4249    7.8091   24.1672 C.2         1 FA1       0.0192
      9 O1         45.5554    8.5397   24.0257 O.co2       1 FA1      -0.5675
     10 O30        42.3165    8.5735   24.7903 O.3         1 FA1      -0.4422
     11 O2         44.0970    6.9814   23.1489 O.co2       1 FA1      -0.5675
     12 C1         43.4993    7.9704   25.3218 C.3         1 FA1       0.0728
     13 H1         42.1912    6.6914   26.4921 H           1 FA1       0.0171
     14 H2         42.9277    5.8591   25.1468 H           1 FA1       0.0171
     15 H3         43.6974    5.7975   27.8898 H           1 FA1       0.0667
     16 H4         44.4222    4.0734   27.0931 H           1 FA1       0.2104
     17 H5         46.1014    6.8935   26.3966 H           1 FA1       0.1059
     18 H6         45.7312    5.8070   28.7364 H           1 FA1       0.2180
     19 H7         45.2391    8.9631   27.9978 H           1 FA1       0.1561
     20 H8         43.7322    9.7693   26.4548 H           1 FA1       0.0503
     21 H9         41.7090    8.6960   25.5499 H           1 FA1       0.1879
@<TRIPOS>BOND
     1     1     2   1
     2    12     1   1
     3     2     3   1
     4     2     4   1
     5     4     5   1
     6     6     4   1
     7     7     6   2
     8    12     7   1
     9     8     9  ar
    10     8    11  ar
    11     8    12   1
    12    12    10   1
    13     1    13   1
    14     1    14   1
    15     2    15   1
    16     3    16   1
    17     4    17   1
    18     5    18   1
    19     6    19   1
    20     7    20   1
    21    10    21   1
@<TRIPOS>SUBSTRUCTURE
     1  FA1      1

