@<TRIPOS>MOLECULE
3n7a_ligand_005
    21    21
SMALL
GAST_HUCK
****
This file was generated by PARSER (from files_GN.cpp)

@<TRIPOS>ATOM
      1 C2         46.8258   11.4864   19.8395 C.3         1 FA1      -0.0257
      2 C3         46.5194   12.9910   19.6183 C.3         1 FA1       0.0989
      3 O3         45.1112   13.2339   19.6587 O.3         1 FA1      -0.3849
      4 C4         47.2420   13.8525   20.6969 C.3         1 FA1       0.1558
      5 O4         47.2529   15.2127   20.2682 O.3         1 FA1      -0.3559
      6 C5         48.6061   13.4349   20.9885 C.2         1 FA1       0.0179
      7 C6         49.1083   12.2351   20.6496 C.2         1 FA1      -0.0502
      8 C          48.6395    9.8794   20.4389 C.2         1 FA1       0.0192
      9 O1         49.3657    8.9636   19.7553 O.co2       1 FA1      -0.5675
     10 O30        48.8927   11.3184   18.5560 O.3         1 FA1      -0.4422
     11 O2         48.1643    9.5299   21.6546 O.co2       1 FA1      -0.5675
     12 C1         48.3691   11.2293   19.8827 C.3         1 FA1       0.0728
     13 H1         46.3736   10.8965   19.0331 H           1 FA1       0.0171
     14 H2         46.3510   11.1818   20.7782 H           1 FA1       0.0171
     15 H3         46.8816   13.2719   18.6260 H           1 FA1       0.0667
     16 H4         44.6787   12.3573   19.5478 H           1 FA1       0.2104
     17 H5         46.6898   13.7917   21.6375 H           1 FA1       0.1059
     18 H6         46.7010   15.6831   20.9292 H           1 FA1       0.2180
     19 H7         49.1784   14.0487   21.5248 H           1 FA1       0.1561
     20 H8         50.0647   12.0596   20.8644 H           1 FA1       0.0503
     21 H9         48.6295   10.4801   18.1064 H           1 FA1       0.1879
@<TRIPOS>BOND
     1     1     2   1
     2    12     1   1
     3     2     3   1
     4     2     4   1
     5     4     5   1
     6     6     4   1
     7     7     6   2
     8    12     7   1
     9     8     9  ar
    10     8    11  ar
    11     8    12   1
    12    12    10   1
    13     1    13   1
    14     1    14   1
    15     2    15   1
    16     3    16   1
    17     4    17   1
    18     5    18   1
    19     6    19   1
    20     7    20   1
    21    10    21   1
@<TRIPOS>SUBSTRUCTURE
     1  FA1      1

