@<TRIPOS>MOLECULE
3n7a_ligand_019
    21    21
SMALL
GAST_HUCK
****
This file was generated by PARSER (from files_GN.cpp)

@<TRIPOS>ATOM
      1 C2         45.5269    5.7428   24.5058 C.3         1 FA1      -0.0257
      2 C3         44.4708    5.9747   23.3997 C.3         1 FA1       0.0989
      3 O3         45.0057    6.8960   22.4491 O.3         1 FA1      -0.3849
      4 C4         44.0922    4.6260   22.7167 C.3         1 FA1       0.1558
      5 O4         42.8593    4.8010   22.0159 O.3         1 FA1      -0.3559
      6 C5         43.9582    3.5121   23.6482 C.2         1 FA1       0.0179
      7 C6         44.3834    3.5421   24.9245 C.2         1 FA1      -0.0502
      8 C          46.1723    4.2658   26.4008 C.2         1 FA1       0.0192
      9 O1         46.1841    4.4560   27.7410 O.co2       1 FA1      -0.5675
     10 O30        44.0280    5.3063   26.3743 O.3         1 FA1      -0.4422
     11 O2         47.2510    3.6581   25.8579 O.co2       1 FA1      -0.5675
     12 C1         45.0283    4.6955   25.5516 C.3         1 FA1       0.0728
     13 H1         45.7507    6.6909   25.0030 H           1 FA1       0.0171
     14 H2         46.4428    5.3899   24.0187 H           1 FA1       0.0171
     15 H3         43.5803    6.4215   23.8548 H           1 FA1       0.0667
     16 H4         44.2423    7.2615   21.9579 H           1 FA1       0.2104
     17 H5         44.8604    4.3551   21.9867 H           1 FA1       0.1059
     18 H6         42.9920    5.5928   21.4533 H           1 FA1       0.2180
     19 H7         43.5363    2.6746   23.3151 H           1 FA1       0.1561
     20 H8         44.1608    2.7644   25.5037 H           1 FA1       0.0503
     21 H9         43.6884    4.5873   26.9542 H           1 FA1       0.1879
@<TRIPOS>BOND
     1     1     2   1
     2    12     1   1
     3     2     3   1
     4     2     4   1
     5     4     5   1
     6     6     4   1
     7     7     6   2
     8    12     7   1
     9     8     9  ar
    10     8    11  ar
    11     8    12   1
    12    12    10   1
    13     1    13   1
    14     1    14   1
    15     2    15   1
    16     3    16   1
    17     4    17   1
    18     5    18   1
    19     6    19   1
    20     7    20   1
    21    10    21   1
@<TRIPOS>SUBSTRUCTURE
     1  FA1      1

