@<TRIPOS>MOLECULE
3n7a_ligand_012
    21    21
SMALL
GAST_HUCK
****
This file was generated by PARSER (from files_GN.cpp)

@<TRIPOS>ATOM
      1 C2         43.8091    7.5445   24.5234 C.3         1 FA1      -0.0257
      2 C3         44.2080    6.0356   24.3480 C.3         1 FA1       0.0989
      3 O3         45.5153    5.9290   23.7909 O.3         1 FA1      -0.3849
      4 C4         44.1412    5.1917   25.6622 C.3         1 FA1       0.1558
      5 O4         44.0502    3.8064   25.3316 O.3         1 FA1      -0.3559
      6 C5         43.0484    5.6073   26.5254 C.2         1 FA1       0.0179
      7 C6         42.7470    6.9053   26.7089 C.2         1 FA1      -0.0502
      8 C          44.5870    8.4650   26.7705 C.2         1 FA1       0.0192
      9 O1         44.7313    9.7774   27.0829 O.co2       1 FA1      -0.5675
     10 O30        42.5336    9.1026   25.8180 O.3         1 FA1      -0.4422
     11 O2         45.5340    7.6127   27.2493 O.co2       1 FA1      -0.5675
     12 C1         43.4200    7.9837   25.9807 C.3         1 FA1       0.0728
     13 H1         42.9526    7.7200   23.8635 H           1 FA1       0.0171
     14 H2         44.6096    8.1931   24.1478 H           1 FA1       0.0171
     15 H3         43.5219    5.5842   23.6240 H           1 FA1       0.0667
     16 H4         46.0976    6.3675   24.4434 H           1 FA1       0.2104
     17 H5         45.0712    5.3294   26.2223 H           1 FA1       0.1059
     18 H6         43.9403    3.3551   26.1928 H           1 FA1       0.2180
     19 H7         42.5183    4.9164   27.0169 H           1 FA1       0.1561
     20 H8         42.0165    7.1396   27.3497 H           1 FA1       0.0503
     21 H9         41.7417    8.9337   26.3649 H           1 FA1       0.1879
@<TRIPOS>BOND
     1     1     2   1
     2    12     1   1
     3     2     3   1
     4     2     4   1
     5     4     5   1
     6     6     4   1
     7     7     6   2
     8    12     7   1
     9     8     9  ar
    10     8    11  ar
    11     8    12   1
    12    12    10   1
    13     1    13   1
    14     1    14   1
    15     2    15   1
    16     3    16   1
    17     4    17   1
    18     5    18   1
    19     6    19   1
    20     7    20   1
    21    10    21   1
@<TRIPOS>SUBSTRUCTURE
     1  FA1      1

