@<TRIPOS>MOLECULE
3n7a_ligand_023
    21    21
SMALL
GAST_HUCK
****
This file was generated by PARSER (from files_GN.cpp)

@<TRIPOS>ATOM
      1 C2         46.3288   13.1596   19.3977 C.3         1 FA1      -0.0257
      2 C3         47.2274   14.4237   19.4924 C.3         1 FA1       0.0989
      3 O3         47.6335   14.6820   20.8371 O.3         1 FA1      -0.3849
      4 C4         48.4908   14.2676   18.6027 C.3         1 FA1       0.1558
      5 O4         48.1456   14.5462   17.2445 O.3         1 FA1      -0.3559
      6 C5         49.1068   12.9486   18.6855 C.2         1 FA1       0.0179
      7 C6         48.4849   11.8498   19.1461 C.2         1 FA1      -0.0502
      8 C          47.1244   11.3959   21.0732 C.2         1 FA1       0.0192
      9 O1         46.9685   12.2917   22.0724 O.co2       1 FA1      -0.5675
     10 O30        46.3972   10.8148   18.8995 O.3         1 FA1      -0.4422
     11 O2         47.1017   10.0879   21.4309 O.co2       1 FA1      -0.5675
     12 C1         47.1062   11.8149   19.6429 C.3         1 FA1       0.0728
     13 H1         45.8994   13.1498   18.3894 H           1 FA1       0.0171
     14 H2         45.4868   13.2534   20.0881 H           1 FA1       0.0171
     15 H3         46.6604   15.2980   19.1562 H           1 FA1       0.0667
     16 H4         46.8381   15.0254   21.2943 H           1 FA1       0.2104
     17 H5         49.2240   15.0200   18.9122 H           1 FA1       0.1059
     18 H6         48.9956   14.6101   16.7597 H           1 FA1       0.2180
     19 H7         50.0307   12.8512   18.3285 H           1 FA1       0.1561
     20 H8         49.0008   10.9974   19.1474 H           1 FA1       0.0503
     21 H9         46.7697    9.9448   19.1587 H           1 FA1       0.1879
@<TRIPOS>BOND
     1     1     2   1
     2    12     1   1
     3     2     3   1
     4     2     4   1
     5     4     5   1
     6     6     4   1
     7     7     6   2
     8    12     7   1
     9     8     9  ar
    10     8    11  ar
    11     8    12   1
    12    12    10   1
    13     1    13   1
    14     1    14   1
    15     2    15   1
    16     3    16   1
    17     4    17   1
    18     5    18   1
    19     6    19   1
    20     7    20   1
    21    10    21   1
@<TRIPOS>SUBSTRUCTURE
     1  FA1      1

