@<TRIPOS>MOLECULE
3n7a_ligand_006
    21    21
SMALL
GAST_HUCK
****
This file was generated by PARSER (from files_GN.cpp)

@<TRIPOS>ATOM
      1 C2         48.4755   11.8553   20.7483 C.3         1 FA1      -0.0257
      2 C3         47.2086   12.7351   20.8787 C.3         1 FA1       0.0989
      3 O3         47.5917   14.0491   21.2533 O.3         1 FA1      -0.3849
      4 C4         46.4334   12.7253   19.5340 C.3         1 FA1       0.1558
      5 O4         45.1222   13.2514   19.7607 O.3         1 FA1      -0.3559
      6 C5         46.3375   11.4171   18.8986 C.2         1 FA1       0.0179
      7 C6         47.0887   10.3553   19.2669 C.2         1 FA1      -0.0502
      8 C          49.3090    9.6264   19.9508 C.2         1 FA1       0.0192
      9 O1         49.9941    8.8734   20.8467 O.co2       1 FA1      -0.5675
     10 O30        47.5135    9.7529   21.4927 O.3         1 FA1      -0.4422
     11 O2         49.8616    9.8162   18.7295 O.co2       1 FA1      -0.5675
     12 C1         48.0886   10.3941   20.3406 C.3         1 FA1       0.0728
     13 H1         49.0275   11.8361   21.6935 H           1 FA1       0.0171
     14 H2         49.1271   12.3047   19.9889 H           1 FA1       0.0171
     15 H3         46.5885   12.3347   21.6692 H           1 FA1       0.0667
     16 H4         46.7510   14.5353   21.4015 H           1 FA1       0.2104
     17 H5         46.9337   13.4026   18.8194 H           1 FA1       0.1059
     18 H6         44.5299   12.4731   19.7062 H           1 FA1       0.2180
     19 H7         45.7217   11.3211   18.1265 H           1 FA1       0.1561
     20 H8         46.9074    9.5061   18.8092 H           1 FA1       0.0503
     21 H9         47.0025    8.9804   21.1368 H           1 FA1       0.1879
@<TRIPOS>BOND
     1     1     2   1
     2    12     1   1
     3     2     3   1
     4     2     4   1
     5     4     5   1
     6     6     4   1
     7     7     6   2
     8    12     7   1
     9     8     9  ar
    10     8    11  ar
    11     8    12   1
    12    12    10   1
    13     1    13   1
    14     1    14   1
    15     2    15   1
    16     3    16   1
    17     4    17   1
    18     5    18   1
    19     6    19   1
    20     7    20   1
    21    10    21   1
@<TRIPOS>SUBSTRUCTURE
     1  FA1      1

