@<TRIPOS>MOLECULE
3n7a_ligand_016
    21    21
SMALL
GAST_HUCK
****
This file was generated by PARSER (from files_GN.cpp)

@<TRIPOS>ATOM
      1 C2         46.6014    5.1561   20.2863 C.3         1 FA1      -0.0257
      2 C3         48.0199    4.6270   19.8740 C.3         1 FA1       0.0989
      3 O3         48.7851    5.7169   19.3436 O.3         1 FA1      -0.3849
      4 C4         48.8193    3.9453   21.0357 C.3         1 FA1       0.1558
      5 O4         48.6396    2.5279   21.0325 O.3         1 FA1      -0.3559
      6 C5         48.4071    4.4136   22.3476 C.2         1 FA1       0.0179
      7 C6         47.1223    4.6835   22.6384 C.2         1 FA1      -0.0502
      8 C          44.7883    5.2504   22.0305 C.2         1 FA1       0.0192
      9 O1         43.7551    5.3013   21.1567 O.co2       1 FA1      -0.5675
     10 O30        45.7651    3.1693   21.5046 O.3         1 FA1      -0.4422
     11 O2         44.4656    5.4497   23.3295 O.co2       1 FA1      -0.5675
     12 C1         46.0563    4.5680   21.6345 C.3         1 FA1       0.0728
     13 H1         45.8980    4.9569   19.4757 H           1 FA1       0.0171
     14 H2         46.6477    6.2455   20.3922 H           1 FA1       0.0171
     15 H3         47.8982    3.8974   19.0675 H           1 FA1       0.0667
     16 H4         48.9712    5.4947   18.4049 H           1 FA1       0.2104
     17 H5         49.8927    4.1247   20.9080 H           1 FA1       0.1059
     18 H6         49.1050    2.1999   20.2333 H           1 FA1       0.2180
     19 H7         49.1074    4.5755   23.0333 H           1 FA1       0.1561
     20 H8         46.9148    5.0336   23.5457 H           1 FA1       0.0503
     21 H9         44.8452    3.0866   21.1724 H           1 FA1       0.1879
@<TRIPOS>BOND
     1     1     2   1
     2    12     1   1
     3     2     3   1
     4     2     4   1
     5     4     5   1
     6     6     4   1
     7     7     6   2
     8    12     7   1
     9     8     9  ar
    10     8    11  ar
    11     8    12   1
    12    12    10   1
    13     1    13   1
    14     1    14   1
    15     2    15   1
    16     3    16   1
    17     4    17   1
    18     5    18   1
    19     6    19   1
    20     7    20   1
    21    10    21   1
@<TRIPOS>SUBSTRUCTURE
     1  FA1      1

