@<TRIPOS>MOLECULE
3n7a_ligand_018
    21    21
SMALL
GAST_HUCK
****
This file was generated by PARSER (from files_GN.cpp)

@<TRIPOS>ATOM
      1 C2         44.0776    5.7461   25.6574 C.3         1 FA1      -0.0257
      2 C3         44.6255    6.6020   26.8205 C.3         1 FA1       0.0989
      3 O3         43.5558    7.1657   27.5769 O.3         1 FA1      -0.3849
      4 C4         45.5565    5.7441   27.7236 C.3         1 FA1       0.1558
      5 O4         46.2628    6.6318   28.5873 O.3         1 FA1      -0.3559
      6 C5         46.4970    4.9270   26.9740 C.2         1 FA1       0.0179
      7 C6         46.3429    4.6206   25.6700 C.2         1 FA1      -0.0502
      8 C          44.7530    4.0616   23.9286 C.2         1 FA1       0.0192
      9 O1         44.0267    3.0328   24.4287 O.co2       1 FA1      -0.5675
     10 O30        45.8058    6.1797   24.0295 O.3         1 FA1      -0.4422
     11 O2         45.3670    3.8460   22.7374 O.co2       1 FA1      -0.5675
     12 C1         45.2545    5.1290   24.8296 C.3         1 FA1       0.0728
     13 H1         43.4460    6.3594   25.0102 H           1 FA1       0.0171
     14 H2         43.4481    4.9599   26.0807 H           1 FA1       0.0171
     15 H3         45.1958    7.4388   26.4034 H           1 FA1       0.0667
     16 H4         43.1539    6.4347   28.0885 H           1 FA1       0.2104
     17 H5         44.9572    5.0748   28.3527 H           1 FA1       0.1059
     18 H6         45.5828    7.0150   29.1830 H           1 FA1       0.2180
     19 H7         47.2649    4.5258   27.4650 H           1 FA1       0.1561
     20 H8         47.0703    4.1010   25.2374 H           1 FA1       0.0503
     21 H9         46.5139    5.7631   23.4928 H           1 FA1       0.1879
@<TRIPOS>BOND
     1     1     2   1
     2    12     1   1
     3     2     3   1
     4     2     4   1
     5     4     5   1
     6     6     4   1
     7     7     6   2
     8    12     7   1
     9     8     9  ar
    10     8    11  ar
    11     8    12   1
    12    12    10   1
    13     1    13   1
    14     1    14   1
    15     2    15   1
    16     3    16   1
    17     4    17   1
    18     5    18   1
    19     6    19   1
    20     7    20   1
    21    10    21   1
@<TRIPOS>SUBSTRUCTURE
     1  FA1      1

