@<TRIPOS>MOLECULE
3n7a_ligand_004
    21    21
SMALL
GAST_HUCK
****
This file was generated by PARSER (from files_GN.cpp)

@<TRIPOS>ATOM
      1 C2         44.6101    7.6655   26.9334 C.3         1 FA1      -0.0257
      2 C3         44.9690    6.1365   26.9103 C.3         1 FA1       0.0989
      3 O3         45.0786    5.5942   28.2282 O.3         1 FA1      -0.3849
      4 C4         43.9682    5.2668   26.0754 C.3         1 FA1       0.1558
      5 O4         44.6110    4.0762   25.6282 O.3         1 FA1      -0.3559
      6 C5         43.3966    6.0161   24.9648 C.2         1 FA1       0.0179
      7 C6         42.9612    7.2805   25.1417 C.2         1 FA1      -0.0502
      8 C          42.1364    7.6377   27.4339 C.2         1 FA1       0.0192
      9 O1         41.9224    8.4565   28.4896 O.co2       1 FA1      -0.5675
     10 O30        43.0583    9.3928   26.1647 O.3         1 FA1      -0.4422
     11 O2         41.2794    6.5966   27.2951 O.co2       1 FA1      -0.5675
     12 C1         43.1658    7.9823   26.4127 C.3         1 FA1       0.0728
     13 H1         45.3233    8.1997   26.2933 H           1 FA1       0.0171
     14 H2         44.7596    8.0715   27.9404 H           1 FA1       0.0171
     15 H3         45.9651    6.0401   26.4641 H           1 FA1       0.0667
     16 H4         44.1824    5.6875   28.6272 H           1 FA1       0.2104
     17 H5         43.1337    4.9661   26.7127 H           1 FA1       0.1059
     18 H6         44.2745    3.3902   26.2437 H           1 FA1       0.2180
     19 H7         43.3068    5.5816   24.0720 H           1 FA1       0.1561
     20 H8         42.5709    7.7632   24.3657 H           1 FA1       0.0503
     21 H9         42.1973    9.6585   26.5773 H           1 FA1       0.1879
@<TRIPOS>BOND
     1     1     2   1
     2    12     1   1
     3     2     3   1
     4     2     4   1
     5     4     5   1
     6     6     4   1
     7     7     6   2
     8    12     7   1
     9     8     9  ar
    10     8    11  ar
    11     8    12   1
    12    12    10   1
    13     1    13   1
    14     1    14   1
    15     2    15   1
    16     3    16   1
    17     4    17   1
    18     5    18   1
    19     6    19   1
    20     7    20   1
    21    10    21   1
@<TRIPOS>SUBSTRUCTURE
     1  FA1      1

