@<TRIPOS>MOLECULE
3n7a_ligand_024
    21    21
SMALL
GAST_HUCK
****
This file was generated by PARSER (from files_GN.cpp)

@<TRIPOS>ATOM
      1 C2         45.5650    5.4911   23.8653 C.3         1 FA1      -0.0257
      2 C3         44.9960    4.4269   22.8871 C.3         1 FA1       0.0989
      3 O3         44.1839    3.4825   23.5935 O.3         1 FA1      -0.3849
      4 C4         44.1670    5.1309   21.7774 C.3         1 FA1       0.1558
      5 O4         45.0326    5.7666   20.8361 O.3         1 FA1      -0.3559
      6 C5         43.2624    6.1529   22.2867 C.2         1 FA1       0.0179
      7 C6         43.4011    6.7361   23.4888 C.2         1 FA1      -0.0502
      8 C          43.8103    5.7969   25.6926 C.2         1 FA1       0.0192
      9 O1         42.5646    6.1702   26.0563 O.co2       1 FA1      -0.5675
     10 O30        45.0349    7.6165   24.9235 O.3         1 FA1      -0.4422
     11 O2         44.6082    5.4511   26.7262 O.co2       1 FA1      -0.5675
     12 C1         44.4336    6.3949   24.4782 C.3         1 FA1       0.0728
     13 H1         46.2545    6.1204   23.2952 H           1 FA1       0.0171
     14 H2         46.1583    4.9969   24.6374 H           1 FA1       0.0171
     15 H3         45.8200    3.8681   22.4351 H           1 FA1       0.0667
     16 H4         43.7778    2.9199   22.8987 H           1 FA1       0.2104
     17 H5         43.5864    4.3779   21.2360 H           1 FA1       0.1059
     18 H6         45.6548    5.0656   20.5434 H           1 FA1       0.2180
     19 H7         42.5492    6.4795   21.6777 H           1 FA1       0.1561
     20 H8         42.7459    7.4498   23.7267 H           1 FA1       0.0503
     21 H9         45.6426    7.8980   24.2128 H           1 FA1       0.1879
@<TRIPOS>BOND
     1     1     2   1
     2    12     1   1
     3     2     3   1
     4     2     4   1
     5     4     5   1
     6     6     4   1
     7     7     6   2
     8    12     7   1
     9     8     9  ar
    10     8    11  ar
    11     8    12   1
    12    12    10   1
    13     1    13   1
    14     1    14   1
    15     2    15   1
    16     3    16   1
    17     4    17   1
    18     5    18   1
    19     6    19   1
    20     7    20   1
    21    10    21   1
@<TRIPOS>SUBSTRUCTURE
     1  FA1      1

