@<TRIPOS>MOLECULE
3n7a_ligand_022
    21    21
SMALL
GAST_HUCK
****
This file was generated by PARSER (from files_GN.cpp)

@<TRIPOS>ATOM
      1 C2         43.9199    5.3986   23.7760 C.3         1 FA1      -0.0257
      2 C3         43.7506    4.2346   22.7525 C.3         1 FA1       0.0989
      3 O3         42.3782    4.1574   22.3731 O.3         1 FA1      -0.3849
      4 C4         44.6576    4.3494   21.4778 C.3         1 FA1       0.1558
      5 O4         45.6348    3.3091   21.4801 O.3         1 FA1      -0.3559
      6 C5         45.3675    5.6062   21.3203 C.2         1 FA1       0.0179
      7 C6         45.6885    6.3817   22.3730 C.2         1 FA1      -0.0502
      8 C          45.4842    7.0854   24.7375 C.2         1 FA1       0.0192
      9 O1         45.2919    8.3779   24.3774 O.co2       1 FA1      -0.5675
     10 O30        46.2528    4.9330   24.1353 O.3         1 FA1      -0.4422
     11 O2         45.4223    6.8085   26.0540 O.co2       1 FA1      -0.5675
     12 C1         45.3545    5.9849   23.7429 C.3         1 FA1       0.0728
     13 H1         43.6930    5.0264   24.7831 H           1 FA1       0.0171
     14 H2         43.1966    6.1902   23.5499 H           1 FA1       0.0171
     15 H3         43.9805    3.2978   23.2741 H           1 FA1       0.0667
     16 H4         42.2865    3.2946   21.9194 H           1 FA1       0.2104
     17 H5         44.0491    4.1955   20.5863 H           1 FA1       0.1059
     18 H6         45.0896    2.5068   21.3553 H           1 FA1       0.2180
     19 H7         45.6389    5.8951   20.4086 H           1 FA1       0.1561
     20 H8         46.1770    7.2272   22.1932 H           1 FA1       0.0503
     21 H9         47.0447    5.0131   23.5722 H           1 FA1       0.1879
@<TRIPOS>BOND
     1     1     2   1
     2    12     1   1
     3     2     3   1
     4     2     4   1
     5     4     5   1
     6     6     4   1
     7     7     6   2
     8    12     7   1
     9     8     9  ar
    10     8    11  ar
    11     8    12   1
    12    12    10   1
    13     1    13   1
    14     1    14   1
    15     2    15   1
    16     3    16   1
    17     4    17   1
    18     5    18   1
    19     6    19   1
    20     7    20   1
    21    10    21   1
@<TRIPOS>SUBSTRUCTURE
     1  FA1      1

