@<TRIPOS>MOLECULE
3n86_ligand_003
    41    42
SMALL
GAST_HUCK
****
This file was generated by PARSER (from files_GN.cpp)

@<TRIPOS>ATOM
      1 OAA        24.4230   26.1513   -1.1310 O.2         1 RJP      -0.3845
      2 OAB        29.6272   29.7530   -0.6820 O.co2       1 RJP      -0.5717
      3 OAC        29.2795   31.8636    0.2081 O.co2       1 RJP      -0.5717
      4 OAD        28.4876   30.8259   -5.6602 O.3         1 RJP      -0.3854
      5 OAE        25.5017   30.6194   -4.9670 O.3         1 RJP      -0.3562
      6 OAF        27.7641   32.6763   -1.8632 O.3         1 RJP      -0.4539
      7 CAG        25.3694   27.5987   -2.6549 C.3         1 RJP       0.0698
      8 CAH        25.0278   29.1119   -2.5102 C.3         1 RJP       0.0498
      9 CAI        26.8780   30.5181   -1.7763 C.2         1 RJP      -0.0572
     10 CAJ        19.9157   23.9905   -2.4689 C.ar        1 RJP      -0.0772
     11 CAK        20.4668   24.2295   -3.7430 C.ar        1 RJP      -0.0755
     12 CAL        20.4864   24.5879   -1.3363 C.ar        1 RJP      -0.0755
     13 CAM        21.5865   25.0695   -3.8747 C.ar        1 RJP      -0.0413
     14 CAN        21.5973   25.4476   -1.4762 C.ar        1 RJP      -0.0413
     15 CAO        28.8381   31.0151   -3.2582 C.3         1 RJP      -0.0350
     16 NAP        23.2381   26.5192   -2.9804 N.am        1 RJP      -0.2336
     17 CAQ        24.2925   26.7319   -2.2006 C.2         1 RJP       0.2085
     18 CAR        29.0419   30.9695   -0.7799 C.2         1 RJP       0.0068
     19 CAS        26.1914   29.9668   -2.8051 C.2         1 RJP       0.0428
     20 CAT        22.1705   25.6907   -2.7498 C.ar        1 RJP       0.0662
     21 CAU        27.8253   31.1133   -4.4274 C.3         1 RJP       0.0972
     22 CAV        26.6212   30.1449   -4.2070 C.3         1 RJP       0.1616
     23 CAW        28.1175   31.2847   -1.9025 C.3         1 RJP       0.0564
     24 H1         29.4159   31.1265   -5.5430 H           1 RJP       0.2103
     25 H2         25.8366   31.2823   -5.6098 H           1 RJP       0.2176
     26 H3         27.5158   32.8683   -0.9349 H           1 RJP       0.1842
     27 H4         26.2797   27.3929   -2.0766 H           1 RJP       0.0562
     28 H5         25.5965   27.3734   -3.7021 H           1 RJP       0.0562
     29 H6         24.6724   29.2745   -1.4848 H           1 RJP       0.0714
     30 H7         24.1884   29.3654   -3.1683 H           1 RJP       0.0714
     31 H8         26.4936   30.4429   -0.8623 H           1 RJP       0.0428
     32 H9         19.1002   23.3748   -2.3715 H           1 RJP       0.0487
     33 H10        20.0587   23.7837   -4.5671 H           1 RJP       0.0577
     34 H11        20.0895   24.4111   -0.4088 H           1 RJP       0.0577
     35 H12        21.9839   25.2161   -4.8056 H           1 RJP       0.0502
     36 H13        21.9671   25.8995   -0.6392 H           1 RJP       0.0502
     37 H14        29.6393   31.7522   -3.3925 H           1 RJP       0.0144
     38 H15        29.2899   30.0180   -3.2666 H           1 RJP       0.0144
     39 H16        23.2777   26.9327   -3.8575 H           1 RJP       0.2257
     40 H17        27.4698   32.1465   -4.4779 H           1 RJP       0.0662
     41 H18        26.9087   29.1685   -4.6052 H           1 RJP       0.1053
@<TRIPOS>BOND
     1    17     1   2
     2    18     2  ar
     3    18     3  ar
     4    21     4   1
     5    22     5   1
     6    23     6   1
     7     8     7   1
     8     7    17   1
     9    19     8   1
    10    19     9   2
    11     9    23   1
    12    11    10  ar
    13    12    10  ar
    14    13    11  ar
    15    14    12  ar
    16    20    13  ar
    17    20    14  ar
    18    15    21   1
    19    23    15   1
    20    17    16  am
    21    16    20   1
    22    23    18   1
    23    19    22   1
    24    21    22   1
    25     4    24   1
    26     5    25   1
    27     6    26   1
    28     7    27   1
    29     7    28   1
    30     8    29   1
    31     8    30   1
    32     9    31   1
    33    10    32   1
    34    11    33   1
    35    12    34   1
    36    13    35   1
    37    14    36   1
    38    15    37   1
    39    15    38   1
    40    16    39   1
    41    21    40   1
    42    22    41   1
@<TRIPOS>SUBSTRUCTURE
     1  RJP      7

