@<TRIPOS>MOLECULE
3n86_ligand_019
    41    42
SMALL
GAST_HUCK
****
This file was generated by PARSER (from files_GN.cpp)

@<TRIPOS>ATOM
      1 OAA        24.5716   26.3895   -1.0403 O.2         1 RJP      -0.3845
      2 OAB        20.9765   23.9094    0.0234 O.co2       1 RJP      -0.5717
      3 OAC        20.2069   22.4508   -1.6112 O.co2       1 RJP      -0.5717
      4 OAD        18.2027   25.5480   -0.0897 O.3         1 RJP      -0.3854
      5 OAE        19.1296   28.2052   -2.4721 O.3         1 RJP      -0.3562
      6 OAF        20.9099   24.3642   -3.4794 O.3         1 RJP      -0.4539
      7 CAG        22.9868   27.7627   -0.0313 C.3         1 RJP       0.0698
      8 CAH        21.5865   28.1171   -0.6416 C.3         1 RJP       0.0498
      9 CAI        21.1797   25.9576   -1.7947 C.2         1 RJP      -0.0572
     10 CAJ        27.0741   28.7904   -5.0279 C.ar        1 RJP      -0.0772
     11 CAK        25.9521   29.6339   -4.9255 C.ar        1 RJP      -0.0755
     12 CAL        27.3286   27.8372   -4.0392 C.ar        1 RJP      -0.0755
     13 CAM        25.0798   29.4916   -3.8291 C.ar        1 RJP      -0.0413
     14 CAN        26.4452   27.6866   -2.9471 C.ar        1 RJP      -0.0413
     15 CAO        18.8731   25.1501   -2.4280 C.3         1 RJP      -0.0350
     16 NAP        24.3868   28.4693   -1.8371 N.am        1 RJP      -0.2336
     17 CAQ        24.0465   27.5108   -0.9984 C.2         1 RJP       0.2085
     18 CAR        20.5534   23.7078   -1.2431 C.2         1 RJP       0.0068
     19 CAS        20.6998   27.0718   -1.1839 C.2         1 RJP       0.0428
     20 CAT        25.2945   28.5090   -2.8456 C.ar        1 RJP       0.0662
     21 CAU        18.3363   26.1555   -1.3767 C.3         1 RJP       0.0972
     22 CAV        19.2694   27.3946   -1.3031 C.3         1 RJP       0.1616
     23 CAW        20.3861   24.8149   -2.2231 C.3         1 RJP       0.0564
     24 H1         19.1144   25.3620    0.2080 H           1 RJP       0.2103
     25 H2         18.3333   28.7649   -2.3087 H           1 RJP       0.2176
     26 H3         21.8651   24.1581   -3.3273 H           1 RJP       0.1842
     27 H4         22.8627   26.9198    0.6588 H           1 RJP       0.0562
     28 H5         23.3213   28.6147    0.5492 H           1 RJP       0.0562
     29 H6         21.6992   28.8717   -1.4173 H           1 RJP       0.0714
     30 H7         21.0574   28.5912    0.1891 H           1 RJP       0.0714
     31 H8         22.1432   25.8112   -1.8506 H           1 RJP       0.0428
     32 H9         27.7049   28.9002   -5.8221 H           1 RJP       0.0487
     33 H10        25.7683   30.3362   -5.6438 H           1 RJP       0.0577
     34 H11        28.1638   27.2448   -4.0979 H           1 RJP       0.0577
     35 H12        24.2598   30.1071   -3.7821 H           1 RJP       0.0502
     36 H13        26.6630   26.9965   -2.2323 H           1 RJP       0.0502
     37 H14        18.7447   25.6052   -3.4163 H           1 RJP       0.0144
     38 H15        18.2589   24.2406   -2.4125 H           1 RJP       0.0144
     39 H16        23.8639   29.2757   -1.7456 H           1 RJP       0.2257
     40 H17        17.3362   26.4729   -1.6733 H           1 RJP       0.0662
     41 H18        18.9424   27.9878   -0.4404 H           1 RJP       0.1053
@<TRIPOS>BOND
     1    17     1   2
     2    18     2  ar
     3    18     3  ar
     4    21     4   1
     5    22     5   1
     6    23     6   1
     7     8     7   1
     8     7    17   1
     9    19     8   1
    10    19     9   2
    11     9    23   1
    12    11    10  ar
    13    12    10  ar
    14    13    11  ar
    15    14    12  ar
    16    20    13  ar
    17    20    14  ar
    18    15    21   1
    19    23    15   1
    20    17    16  am
    21    16    20   1
    22    23    18   1
    23    19    22   1
    24    21    22   1
    25     4    24   1
    26     5    25   1
    27     6    26   1
    28     7    27   1
    29     7    28   1
    30     8    29   1
    31     8    30   1
    32     9    31   1
    33    10    32   1
    34    11    33   1
    35    12    34   1
    36    13    35   1
    37    14    36   1
    38    15    37   1
    39    15    38   1
    40    16    39   1
    41    21    40   1
    42    22    41   1
@<TRIPOS>SUBSTRUCTURE
     1  RJP      7

