@<TRIPOS>MOLECULE
3n86_ligand_018
    41    42
SMALL
GAST_HUCK
****
This file was generated by PARSER (from files_GN.cpp)

@<TRIPOS>ATOM
      1 OAA        25.3314   25.9569   -1.5648 O.2         1 RJP      -0.3845
      2 OAB        30.5476   31.8518   -1.3636 O.co2       1 RJP      -0.5717
      3 OAC        29.3193   30.2774   -0.2181 O.co2       1 RJP      -0.5717
      4 OAD        28.0699   31.4308   -5.9703 O.3         1 RJP      -0.3854
      5 OAE        25.3453   30.6348   -4.9763 O.3         1 RJP      -0.3562
      6 OAF        27.7890   32.7495   -1.8896 O.3         1 RJP      -0.4539
      7 CAG        25.3066   27.6160   -3.1413 C.3         1 RJP       0.0698
      8 CAH        25.2500   29.0715   -2.5824 C.3         1 RJP       0.0498
      9 CAI        27.1076   30.5448   -1.9619 C.2         1 RJP      -0.0572
     10 CAJ        30.1579   24.1727   -0.3622 C.ar        1 RJP      -0.0772
     11 CAK        28.8309   23.7195   -0.4471 C.ar        1 RJP      -0.0755
     12 CAL        30.5201   25.3907   -0.9634 C.ar        1 RJP      -0.0755
     13 CAM        27.8655   24.4929   -1.1182 C.ar        1 RJP      -0.0413
     14 CAN        29.5516   26.1624   -1.6330 C.ar        1 RJP      -0.0413
     15 CAO        28.7752   31.3672   -3.6434 C.3         1 RJP      -0.0350
     16 NAP        27.3347   26.5779   -2.3599 N.am        1 RJP      -0.2336
     17 CAQ        26.0095   26.6637   -2.2996 C.2         1 RJP       0.2085
     18 CAR        29.3910   31.1619   -1.2394 C.2         1 RJP       0.0068
     19 CAS        26.3686   29.9649   -2.9378 C.2         1 RJP       0.0428
     20 CAT        28.2031   25.7418   -1.7012 C.ar        1 RJP       0.0662
     21 CAU        27.5892   31.4646   -4.6254 C.3         1 RJP       0.0972
     22 CAV        26.5914   30.2981   -4.3601 C.3         1 RJP       0.1616
     23 CAW        28.2595   31.4283   -2.1721 C.3         1 RJP       0.0564
     24 H1         27.3549   31.8453   -6.4949 H           1 RJP       0.2103
     25 H2         25.5547   31.2262   -5.7263 H           1 RJP       0.2176
     26 H3         28.5208   33.3568   -2.1320 H           1 RJP       0.1842
     27 H4         25.7475   27.5909   -4.1374 H           1 RJP       0.0562
     28 H5         24.2718   27.2750   -3.2682 H           1 RJP       0.0562
     29 H6         25.0985   29.0125   -1.4999 H           1 RJP       0.0714
     30 H7         24.3383   29.5338   -2.9674 H           1 RJP       0.0714
     31 H8         26.8065   30.4411   -1.0210 H           1 RJP       0.0428
     32 H9         30.8610   23.6124    0.1286 H           1 RJP       0.0487
     33 H10        28.5676   22.8269   -0.0220 H           1 RJP       0.0577
     34 H11        31.4881   25.7155   -0.9099 H           1 RJP       0.0577
     35 H12        26.9184   24.1220   -1.1760 H           1 RJP       0.0502
     36 H13        29.8381   27.0474   -2.0591 H           1 RJP       0.0502
     37 H14        29.4735   32.1862   -3.8335 H           1 RJP       0.0144
     38 H15        29.3023   30.4229   -3.8203 H           1 RJP       0.0144
     39 H16        27.7602   27.2320   -2.9383 H           1 RJP       0.2257
     40 H17        27.0862   32.4246   -4.4702 H           1 RJP       0.0662
     41 H18        26.9809   29.4112   -4.8660 H           1 RJP       0.1053
@<TRIPOS>BOND
     1    17     1   2
     2    18     2  ar
     3    18     3  ar
     4    21     4   1
     5    22     5   1
     6    23     6   1
     7     8     7   1
     8     7    17   1
     9    19     8   1
    10    19     9   2
    11     9    23   1
    12    11    10  ar
    13    12    10  ar
    14    13    11  ar
    15    14    12  ar
    16    20    13  ar
    17    20    14  ar
    18    15    21   1
    19    23    15   1
    20    17    16  am
    21    16    20   1
    22    23    18   1
    23    19    22   1
    24    21    22   1
    25     4    24   1
    26     5    25   1
    27     6    26   1
    28     7    27   1
    29     7    28   1
    30     8    29   1
    31     8    30   1
    32     9    31   1
    33    10    32   1
    34    11    33   1
    35    12    34   1
    36    13    35   1
    37    14    36   1
    38    15    37   1
    39    15    38   1
    40    16    39   1
    41    21    40   1
    42    22    41   1
@<TRIPOS>SUBSTRUCTURE
     1  RJP      7

