@<TRIPOS>MOLECULE
3n86_ligand_011
    41    42
SMALL
GAST_HUCK
****
This file was generated by PARSER (from files_GN.cpp)

@<TRIPOS>ATOM
      1 OAA        19.9195   25.9786    4.7933 O.2         1 RJP      -0.3845
      2 OAB        23.6824   28.0004   -2.4666 O.co2       1 RJP      -0.5717
      3 OAC        24.1763   26.5689   -0.7242 O.co2       1 RJP      -0.5717
      4 OAD        20.0296   23.5119   -2.4931 O.3         1 RJP      -0.3854
      5 OAE        18.7009   24.3904   -0.0127 O.3         1 RJP      -0.3562
      6 OAF        21.0463   27.6707   -2.1909 O.3         1 RJP      -0.4539
      7 CAG        21.2613   26.3796    2.9504 C.3         1 RJP       0.0698
      8 CAH        20.2267   25.8035    1.9296 C.3         1 RJP       0.0498
      9 CAI        21.3354   26.7345   -0.0850 C.2         1 RJP      -0.0572
     10 CAJ        22.5178   24.4366    9.0997 C.ar        1 RJP      -0.0772
     11 CAK        21.3481   24.1019    8.3956 C.ar        1 RJP      -0.0755
     12 CAL        23.5199   25.1934    8.4693 C.ar        1 RJP      -0.0755
     13 CAM        21.1775   24.5301    7.0648 C.ar        1 RJP      -0.0413
     14 CAN        23.3515   25.6142    7.1362 C.ar        1 RJP      -0.0413
     15 CAO        21.6308   25.3156   -2.1596 C.3         1 RJP      -0.0350
     16 NAP        22.1102   25.7332    5.1152 N.am        1 RJP      -0.2336
     17 CAQ        21.0562   25.9664    4.3376 C.2         1 RJP       0.2085
     18 CAR        23.2588   27.0684   -1.5818 C.2         1 RJP       0.0068
     19 CAS        20.5789   25.7699    0.4941 C.2         1 RJP       0.0428
     20 CAT        22.1720   25.3079    6.4187 C.ar        1 RJP       0.0662
     21 CAU        20.2257   24.7632   -1.8389 C.3         1 RJP       0.0972
     22 CAV        20.0816   24.6251   -0.2970 C.3         1 RJP       0.1616
     23 CAW        21.8217   26.7032   -1.4744 C.3         1 RJP       0.0564
     24 H1         19.0589   23.3714   -2.4923 H           1 RJP       0.2103
     25 H2         18.5823   23.4285   -0.1380 H           1 RJP       0.2176
     26 H3         21.4279   28.5465   -1.9644 H           1 RJP       0.1842
     27 H4         21.2168   27.4717    2.9178 H           1 RJP       0.0562
     28 H5         22.2659   26.0860    2.6315 H           1 RJP       0.0562
     29 H6         19.3007   26.3771    2.0201 H           1 RJP       0.0714
     30 H7         20.0020   24.7825    2.2529 H           1 RJP       0.0714
     31 H8         21.5503   27.5467    0.4462 H           1 RJP       0.0428
     32 H9         22.6418   24.1261   10.0665 H           1 RJP       0.0487
     33 H10        20.6244   23.5414    8.8507 H           1 RJP       0.0577
     34 H11        24.3696   25.4395    8.9809 H           1 RJP       0.0577
     35 H12        20.3359   24.2384    6.5663 H           1 RJP       0.0502
     36 H13        24.0976   26.1573    6.6932 H           1 RJP       0.0502
     37 H14        21.7615   25.3962   -3.2432 H           1 RJP       0.0144
     38 H15        22.3726   24.5992   -1.7886 H           1 RJP       0.0144
     39 H16        22.9703   25.9343    4.7124 H           1 RJP       0.2257
     40 H17        19.4743   25.4615   -2.2218 H           1 RJP       0.0662
     41 H18        20.6408   23.7410    0.0256 H           1 RJP       0.1053
@<TRIPOS>BOND
     1    17     1   2
     2    18     2  ar
     3    18     3  ar
     4    21     4   1
     5    22     5   1
     6    23     6   1
     7     8     7   1
     8     7    17   1
     9    19     8   1
    10    19     9   2
    11     9    23   1
    12    11    10  ar
    13    12    10  ar
    14    13    11  ar
    15    14    12  ar
    16    20    13  ar
    17    20    14  ar
    18    15    21   1
    19    23    15   1
    20    17    16  am
    21    16    20   1
    22    23    18   1
    23    19    22   1
    24    21    22   1
    25     4    24   1
    26     5    25   1
    27     6    26   1
    28     7    27   1
    29     7    28   1
    30     8    29   1
    31     8    30   1
    32     9    31   1
    33    10    32   1
    34    11    33   1
    35    12    34   1
    36    13    35   1
    37    14    36   1
    38    15    37   1
    39    15    38   1
    40    16    39   1
    41    21    40   1
    42    22    41   1
@<TRIPOS>SUBSTRUCTURE
     1  RJP      7

