@<TRIPOS>MOLECULE
3n86_ligand_020
    41    42
SMALL
GAST_HUCK
****
This file was generated by PARSER (from files_GN.cpp)

@<TRIPOS>ATOM
      1 OAA        29.4348   26.6372    0.2887 O.2         1 RJP      -0.3845
      2 OAB        28.0764   30.8795   -5.8624 O.co2       1 RJP      -0.5717
      3 OAC        27.1880   32.7518   -4.8571 O.co2       1 RJP      -0.5717
      4 OAD        24.0045   28.4987   -3.1405 O.3         1 RJP      -0.3854
      5 OAE        26.1046   26.8420   -2.1224 O.3         1 RJP      -0.3562
      6 OAF        27.1448   31.4504   -2.4075 O.3         1 RJP      -0.4539
      7 CAG        29.7482   27.1383   -1.9515 C.3         1 RJP       0.0698
      8 CAH        28.8195   27.2341   -3.1970 C.3         1 RJP       0.0498
      9 CAI        28.0952   29.5545   -3.3222 C.2         1 RJP      -0.0572
     10 CAJ        28.3571   21.4079    0.9492 C.ar        1 RJP      -0.0772
     11 CAK        28.4257   22.6058    1.6758 C.ar        1 RJP      -0.0755
     12 CAL        28.5309   21.4265   -0.4509 C.ar        1 RJP      -0.0755
     13 CAM        28.6750   23.8230    1.0126 C.ar        1 RJP      -0.0413
     14 CAN        28.7749   22.6410   -1.1046 C.ar        1 RJP      -0.0413
     15 CAO        25.6830   30.1329   -3.8670 C.3         1 RJP      -0.0350
     16 NAP        29.1272   24.9710   -1.1689 N.am        1 RJP      -0.2336
     17 CAQ        29.3272   26.2517   -0.8806 C.2         1 RJP       0.2085
     18 CAR        27.6059   31.4672   -4.7315 C.2         1 RJP       0.0068
     19 CAS        27.7581   28.2517   -3.1378 C.2         1 RJP       0.0428
     20 CAT        28.8645   23.8606   -0.3953 C.ar        1 RJP       0.0662
     21 CAU        25.3321   28.9712   -2.9130 C.3         1 RJP       0.0972
     22 CAV        26.3511   27.8233   -3.1291 C.3         1 RJP       0.1616
     23 CAW        27.1446   30.6413   -3.5906 C.3         1 RJP       0.0564
     24 H1         23.4228   29.2576   -2.9273 H           1 RJP       0.2103
     25 H2         25.1905   26.5324   -2.3072 H           1 RJP       0.2176
     26 H3         26.5331   32.1949   -2.5960 H           1 RJP       0.1842
     27 H4         29.9193   28.1481   -1.5479 H           1 RJP       0.0562
     28 H5         30.7319   26.7716   -2.2771 H           1 RJP       0.0562
     29 H6         28.3945   26.2372   -3.3947 H           1 RJP       0.0714
     30 H7         29.4573   27.4436   -4.0561 H           1 RJP       0.0714
     31 H8         29.0610   29.8068   -3.2873 H           1 RJP       0.0428
     32 H9         28.1755   20.5253    1.4303 H           1 RJP       0.0487
     33 H10        28.2960   22.5941    2.6920 H           1 RJP       0.0577
     34 H11        28.4738   20.5596   -0.9852 H           1 RJP       0.0577
     35 H12        28.7221   24.6748    1.5734 H           1 RJP       0.0502
     36 H13        28.8951   22.6310   -2.1233 H           1 RJP       0.0502
     37 H14        24.9664   30.9565   -3.7512 H           1 RJP       0.0144
     38 H15        25.5958   29.7727   -4.8996 H           1 RJP       0.0144
     39 H16        29.2121   24.7616   -2.1123 H           1 RJP       0.2257
     40 H17        25.3816   29.3270   -1.8748 H           1 RJP       0.0662
     41 H18        26.1533   27.3609   -4.0952 H           1 RJP       0.1053
@<TRIPOS>BOND
     1    17     1   2
     2    18     2  ar
     3    18     3  ar
     4    21     4   1
     5    22     5   1
     6    23     6   1
     7     8     7   1
     8     7    17   1
     9    19     8   1
    10    19     9   2
    11     9    23   1
    12    11    10  ar
    13    12    10  ar
    14    13    11  ar
    15    14    12  ar
    16    20    13  ar
    17    20    14  ar
    18    15    21   1
    19    23    15   1
    20    17    16  am
    21    16    20   1
    22    23    18   1
    23    19    22   1
    24    21    22   1
    25     4    24   1
    26     5    25   1
    27     6    26   1
    28     7    27   1
    29     7    28   1
    30     8    29   1
    31     8    30   1
    32     9    31   1
    33    10    32   1
    34    11    33   1
    35    12    34   1
    36    13    35   1
    37    14    36   1
    38    15    37   1
    39    15    38   1
    40    16    39   1
    41    21    40   1
    42    22    41   1
@<TRIPOS>SUBSTRUCTURE
     1  RJP      7

