@<TRIPOS>MOLECULE
3n86_ligand_026
    41    42
SMALL
GAST_HUCK
****
This file was generated by PARSER (from files_GN.cpp)

@<TRIPOS>ATOM
      1 OAA        29.3048   26.6813   -0.4953 O.2         1 RJP      -0.3845
      2 OAB        27.5707   32.7339   -4.1226 O.co2       1 RJP      -0.5717
      3 OAC        25.5233   33.3280   -3.2657 O.co2       1 RJP      -0.5717
      4 OAD        28.1278   30.8324   -6.0184 O.3         1 RJP      -0.3854
      5 OAE        26.7099   27.5814   -5.0762 O.3         1 RJP      -0.3562
      6 OAF        24.5595   30.7986   -3.3129 O.3         1 RJP      -0.4539
      7 CAG        27.8088   26.9171   -2.2319 C.3         1 RJP       0.0698
      8 CAH        28.3296   28.3596   -2.5092 C.3         1 RJP       0.0498
      9 CAI        26.7142   30.1307   -3.0375 C.2         1 RJP      -0.0572
     10 CAJ        30.5482   21.5931    0.4272 C.ar        1 RJP      -0.0772
     11 CAK        30.9923   22.8995    0.6891 C.ar        1 RJP      -0.0755
     12 CAL        29.4581   21.3837   -0.4357 C.ar        1 RJP      -0.0755
     13 CAM        30.3485   23.9953    0.0888 C.ar        1 RJP      -0.0413
     14 CAN        28.8141   22.4805   -1.0358 C.ar        1 RJP      -0.0413
     15 CAO        25.7854   30.4790   -5.3943 C.3         1 RJP      -0.0350
     16 NAP        28.5467   24.7897   -1.4278 N.am        1 RJP      -0.2336
     17 CAQ        28.6306   26.1136   -1.3445 C.2         1 RJP       0.2085
     18 CAR        26.3090   32.3676   -3.8005 C.2         1 RJP       0.0068
     19 CAS        27.4981   29.1126   -3.4603 C.2         1 RJP       0.0428
     20 CAT        29.2392   23.8034   -0.7754 C.ar        1 RJP       0.0662
     21 CAU        27.1085   29.8450   -5.8774 C.3         1 RJP       0.0972
     22 CAV        27.5268   28.7319   -4.8777 C.3         1 RJP       0.1616
     23 CAW        25.8584   30.9499   -3.8988 C.3         1 RJP       0.0564
     24 H1         27.7164   31.5503   -6.5509 H           1 RJP       0.2103
     25 H2         25.9426   27.6931   -4.4777 H           1 RJP       0.2176
     26 H3         23.9036   30.7852   -4.0402 H           1 RJP       0.1842
     27 H4         27.7377   26.3879   -3.1850 H           1 RJP       0.0562
     28 H5         26.8073   26.9682   -1.8022 H           1 RJP       0.0562
     29 H6         29.3457   28.2985   -2.9079 H           1 RJP       0.0714
     30 H7         28.4127   28.8887   -1.5535 H           1 RJP       0.0714
     31 H8         26.7108   30.3555   -2.0656 H           1 RJP       0.0428
     32 H9         31.0232   20.7978    0.8549 H           1 RJP       0.0487
     33 H10        31.7883   23.0569    1.3116 H           1 RJP       0.0577
     34 H11        29.1421   20.4351   -0.6407 H           1 RJP       0.0577
     35 H12        30.7197   24.9229    0.2852 H           1 RJP       0.0502
     36 H13        28.0293   22.3022   -1.6707 H           1 RJP       0.0502
     37 H14        25.0034   29.7257   -5.5013 H           1 RJP       0.0144
     38 H15        25.5111   31.2969   -6.0628 H           1 RJP       0.0144
     39 H16        27.8899   24.4544   -2.0646 H           1 RJP       0.2257
     40 H17        26.9663   29.4116   -6.8699 H           1 RJP       0.0662
     41 H18        28.5406   28.4445   -5.1447 H           1 RJP       0.1053
@<TRIPOS>BOND
     1    17     1   2
     2    18     2  ar
     3    18     3  ar
     4    21     4   1
     5    22     5   1
     6    23     6   1
     7     8     7   1
     8     7    17   1
     9    19     8   1
    10    19     9   2
    11     9    23   1
    12    11    10  ar
    13    12    10  ar
    14    13    11  ar
    15    14    12  ar
    16    20    13  ar
    17    20    14  ar
    18    15    21   1
    19    23    15   1
    20    17    16  am
    21    16    20   1
    22    23    18   1
    23    19    22   1
    24    21    22   1
    25     4    24   1
    26     5    25   1
    27     6    26   1
    28     7    27   1
    29     7    28   1
    30     8    29   1
    31     8    30   1
    32     9    31   1
    33    10    32   1
    34    11    33   1
    35    12    34   1
    36    13    35   1
    37    14    36   1
    38    15    37   1
    39    15    38   1
    40    16    39   1
    41    21    40   1
    42    22    41   1
@<TRIPOS>SUBSTRUCTURE
     1  RJP      7

