@<TRIPOS>MOLECULE
3n86_ligand_023
    41    42
SMALL
GAST_HUCK
****
This file was generated by PARSER (from files_GN.cpp)

@<TRIPOS>ATOM
      1 OAA        24.6865   29.1556   -1.3811 O.2         1 RJP      -0.3845
      2 OAB        26.8823   31.7123    1.0425 O.co2       1 RJP      -0.5717
      3 OAC        28.6397   33.1478    0.7902 O.co2       1 RJP      -0.5717
      4 OAD        30.5200   31.0264   -1.1519 O.3         1 RJP      -0.3854
      5 OAE        28.8262   30.7127   -4.4271 O.3         1 RJP      -0.3562
      6 OAF        26.5637   32.9319   -1.6204 O.3         1 RJP      -0.4539
      7 CAG        25.8733   28.4674   -3.2203 C.3         1 RJP       0.0698
      8 CAH        27.3666   28.5500   -2.7359 C.3         1 RJP       0.0498
      9 CAI        27.3040   30.7169   -1.5841 C.2         1 RJP      -0.0572
     10 CAJ        20.8274   26.0715    0.2917 C.ar        1 RJP      -0.0772
     11 CAK        21.7701   26.9863    0.7862 C.ar        1 RJP      -0.0755
     12 CAL        20.9725   25.5547   -1.0096 C.ar        1 RJP      -0.0755
     13 CAM        22.8538   27.3857   -0.0187 C.ar        1 RJP      -0.0413
     14 CAN        22.0484   25.9657   -1.8171 C.ar        1 RJP      -0.0413
     15 CAO        28.9058   32.6236   -2.0736 C.3         1 RJP      -0.0350
     16 NAP        24.0127   27.2266   -2.2211 N.am        1 RJP      -0.2336
     17 CAQ        24.8602   28.2500   -2.1945 C.2         1 RJP       0.2085
     18 CAR        27.8228   32.2347    0.2199 C.2         1 RJP       0.0068
     19 CAS        27.9297   29.8895   -2.4464 C.2         1 RJP       0.0428
     20 CAT        23.0038   26.8965   -1.3469 C.ar        1 RJP       0.0662
     21 CAU        29.9130   31.4908   -2.3604 C.3         1 RJP       0.0972
     22 CAV        29.1743   30.3290   -3.0964 C.3         1 RJP       0.1616
     23 CAW        27.6735   32.1040   -1.2617 C.3         1 RJP       0.0564
     24 H1         29.8020   30.6211   -0.6209 H           1 RJP       0.2103
     25 H2         29.6493   31.0477   -4.8311 H           1 RJP       0.2176
     26 H3         26.4857   32.8809   -2.5991 H           1 RJP       0.1842
     27 H4         25.8098   27.6417   -3.9341 H           1 RJP       0.0562
     28 H5         25.6184   29.3787   -3.7663 H           1 RJP       0.0562
     29 H6         27.9709   28.0885   -3.5273 H           1 RJP       0.0714
     30 H7         27.5016   27.9210   -1.8549 H           1 RJP       0.0714
     31 H8         26.5215   30.3533   -1.0937 H           1 RJP       0.0428
     32 H9         20.0480   25.7691    0.8827 H           1 RJP       0.0487
     33 H10        21.6753   27.3532    1.7390 H           1 RJP       0.0577
     34 H11        20.2949   24.8771   -1.3659 H           1 RJP       0.0577
     35 H12        23.5318   28.0246    0.3918 H           1 RJP       0.0502
     36 H13        22.1255   25.5827   -2.7637 H           1 RJP       0.0502
     37 H14        28.5740   33.0220   -3.0343 H           1 RJP       0.0144
     38 H15        29.3955   33.4480   -1.5604 H           1 RJP       0.0144
     39 H16        24.0698   26.6600   -3.0090 H           1 RJP       0.2257
     40 H17        30.7164   31.8852   -2.9822 H           1 RJP       0.0662
     41 H18        29.8757   29.4911   -3.1625 H           1 RJP       0.1053
@<TRIPOS>BOND
     1    17     1   2
     2    18     2  ar
     3    18     3  ar
     4    21     4   1
     5    22     5   1
     6    23     6   1
     7     8     7   1
     8     7    17   1
     9    19     8   1
    10    19     9   2
    11     9    23   1
    12    11    10  ar
    13    12    10  ar
    14    13    11  ar
    15    14    12  ar
    16    20    13  ar
    17    20    14  ar
    18    15    21   1
    19    23    15   1
    20    17    16  am
    21    16    20   1
    22    23    18   1
    23    19    22   1
    24    21    22   1
    25     4    24   1
    26     5    25   1
    27     6    26   1
    28     7    27   1
    29     7    28   1
    30     8    29   1
    31     8    30   1
    32     9    31   1
    33    10    32   1
    34    11    33   1
    35    12    34   1
    36    13    35   1
    37    14    36   1
    38    15    37   1
    39    15    38   1
    40    16    39   1
    41    21    40   1
    42    22    41   1
@<TRIPOS>SUBSTRUCTURE
     1  RJP      7

