@<TRIPOS>MOLECULE
3n86_ligand_017
    41    42
SMALL
GAST_HUCK
****
This file was generated by PARSER (from files_GN.cpp)

@<TRIPOS>ATOM
      1 OAA        24.3855   26.1109   -1.6205 O.2         1 RJP      -0.3845
      2 OAB        18.0664   22.9502   -2.4009 O.co2       1 RJP      -0.5717
      3 OAC        20.3074   23.1092   -1.9240 O.co2       1 RJP      -0.5717
      4 OAD        20.5662   23.9323    1.4296 O.3         1 RJP      -0.3854
      5 OAE        22.4323   26.2279    0.6150 O.3         1 RJP      -0.3562
      6 OAF        17.5931   25.5237   -1.9187 O.3         1 RJP      -0.4539
      7 CAG        22.8262   27.1755   -2.9331 C.3         1 RJP       0.0698
      8 CAH        21.7878   27.5322   -1.8270 C.3         1 RJP       0.0498
      9 CAI        19.8641   26.0283   -1.9785 C.2         1 RJP      -0.0572
     10 CAJ        29.3555   27.8094   -2.4841 C.ar        1 RJP      -0.0772
     11 CAK        28.6583   26.6748   -2.0374 C.ar        1 RJP      -0.0755
     12 CAL        28.6591   28.8463   -3.1315 C.ar        1 RJP      -0.0755
     13 CAM        27.2653   26.5825   -2.2232 C.ar        1 RJP      -0.0413
     14 CAN        27.2659   28.7542   -3.3067 C.ar        1 RJP      -0.0413
     15 CAO        18.8448   25.0945    0.1032 C.3         1 RJP      -0.0350
     16 NAP        25.1861   27.6660   -3.0307 N.am        1 RJP      -0.2336
     17 CAQ        24.1958   26.9599   -2.4829 C.2         1 RJP       0.2085
     18 CAR        19.1086   23.7249   -2.0231 C.2         1 RJP       0.0068
     19 CAS        20.9755   26.4082   -1.3221 C.2         1 RJP       0.0428
     20 CAT        26.5399   27.6391   -2.8292 C.ar        1 RJP       0.0662
     21 CAU        20.2462   25.1706    0.7858 C.3         1 RJP       0.0972
     22 CAV        21.4111   25.6062   -0.1674 C.3         1 RJP       0.1616
     23 CAW        18.8778   25.0764   -1.4583 C.3         1 RJP       0.0564
     24 H1         20.2961   23.2259    0.8013 H           1 RJP       0.2103
     25 H2         22.0260   27.0420    0.9898 H           1 RJP       0.2176
     26 H3         16.9424   24.8482   -1.6288 H           1 RJP       0.1842
     27 H4         22.8193   27.9882   -3.6675 H           1 RJP       0.0562
     28 H5         22.5101   26.2744   -3.4724 H           1 RJP       0.0562
     29 H6         21.1017   28.2876   -2.2346 H           1 RJP       0.0714
     30 H7         22.2916   28.0441   -1.0049 H           1 RJP       0.0714
     31 H8         19.6232   26.4934   -2.8286 H           1 RJP       0.0428
     32 H9         30.3658   27.8803   -2.3458 H           1 RJP       0.0487
     33 H10        29.1639   25.9111   -1.5835 H           1 RJP       0.0577
     34 H11        29.1665   29.6648   -3.4726 H           1 RJP       0.0577
     35 H12        26.7992   25.7240   -1.9341 H           1 RJP       0.0502
     36 H13        26.7799   29.5208   -3.7836 H           1 RJP       0.0502
     37 H14        18.2813   25.9793    0.4135 H           1 RJP       0.0144
     38 H15        18.2810   24.2377    0.4804 H           1 RJP       0.0144
     39 H16        24.8943   28.3381   -3.6669 H           1 RJP       0.2257
     40 H17        20.1770   25.9081    1.5907 H           1 RJP       0.0662
     41 H18        21.8558   24.7021   -0.5925 H           1 RJP       0.1053
@<TRIPOS>BOND
     1    17     1   2
     2    18     2  ar
     3    18     3  ar
     4    21     4   1
     5    22     5   1
     6    23     6   1
     7     8     7   1
     8     7    17   1
     9    19     8   1
    10    19     9   2
    11     9    23   1
    12    11    10  ar
    13    12    10  ar
    14    13    11  ar
    15    14    12  ar
    16    20    13  ar
    17    20    14  ar
    18    15    21   1
    19    23    15   1
    20    17    16  am
    21    16    20   1
    22    23    18   1
    23    19    22   1
    24    21    22   1
    25     4    24   1
    26     5    25   1
    27     6    26   1
    28     7    27   1
    29     7    28   1
    30     8    29   1
    31     8    30   1
    32     9    31   1
    33    10    32   1
    34    11    33   1
    35    12    34   1
    36    13    35   1
    37    14    36   1
    38    15    37   1
    39    15    38   1
    40    16    39   1
    41    21    40   1
    42    22    41   1
@<TRIPOS>SUBSTRUCTURE
     1  RJP      7

