@<TRIPOS>MOLECULE
3n86_ligand_010
    41    42
SMALL
GAST_HUCK
****
This file was generated by PARSER (from files_GN.cpp)

@<TRIPOS>ATOM
      1 OAA        29.3458   26.5850   -0.5139 O.2         1 RJP      -0.3845
      2 OAB        26.2480   33.1940   -3.3497 O.co2       1 RJP      -0.5717
      3 OAC        25.6050   31.2979   -4.4670 O.co2       1 RJP      -0.5717
      4 OAD        27.5605   31.3447   -0.8024 O.3         1 RJP      -0.3854
      5 OAE        30.6791   29.7661   -1.9418 O.3         1 RJP      -0.3562
      6 OAF        28.5050   32.0142   -5.0931 O.3         1 RJP      -0.4539
      7 CAG        27.8699   26.9254   -2.2303 C.3         1 RJP       0.0698
      8 CAH        28.7366   27.8110   -3.1863 C.3         1 RJP       0.0498
      9 CAI        28.0928   30.0678   -3.9013 C.2         1 RJP      -0.0572
     10 CAJ        30.4108   21.4425    0.3863 C.ar        1 RJP      -0.0772
     11 CAK        30.9335   22.7267    0.6187 C.ar        1 RJP      -0.0755
     12 CAL        29.3057   21.2883   -0.4728 C.ar        1 RJP      -0.0755
     13 CAM        30.3478   23.8517    0.0037 C.ar        1 RJP      -0.0413
     14 CAN        28.7272   22.4109   -1.0864 C.ar        1 RJP      -0.0413
     15 CAO        28.8705   32.1650   -2.7097 C.3         1 RJP      -0.0350
     16 NAP        28.5805   24.7279   -1.5106 N.am        1 RJP      -0.2336
     17 CAQ        28.6537   26.0501   -1.3692 C.2         1 RJP       0.2085
     18 CAR        26.5701   31.9518   -3.7741 C.2         1 RJP       0.0068
     19 CAS        28.6333   29.2643   -2.9585 C.2         1 RJP       0.0428
     20 CAT        29.2255   23.7123   -0.8518 C.ar        1 RJP       0.0662
     21 CAU        28.8487   31.3010   -1.4248 C.3         1 RJP       0.0972
     22 CAV        29.2605   29.8368   -1.7532 C.3         1 RJP       0.1616
     23 CAW        27.9981   31.5333   -3.8481 C.3         1 RJP       0.0564
     24 H1         26.9685   30.8212   -1.3827 H           1 RJP       0.2103
     25 H2         31.0625   30.2455   -1.1760 H           1 RJP       0.2176
     26 H3         29.4084   31.6367   -5.1747 H           1 RJP       0.1842
     27 H4         27.1867   26.3194   -2.8408 H           1 RJP       0.0562
     28 H5         27.2251   27.5487   -1.6064 H           1 RJP       0.0562
     29 H6         28.4325   27.5602   -4.2054 H           1 RJP       0.0714
     30 H7         29.7921   27.5236   -3.1332 H           1 RJP       0.0714
     31 H8         27.7069   29.6399   -4.7082 H           1 RJP       0.0428
     32 H9         30.8381   20.6248    0.8245 H           1 RJP       0.0487
     33 H10        31.7452   22.8406    1.2315 H           1 RJP       0.0577
     34 H11        28.9357   20.3538   -0.6599 H           1 RJP       0.0577
     35 H12        30.7747   24.7586    0.1786 H           1 RJP       0.0502
     36 H13        27.9297   22.2667   -1.7124 H           1 RJP       0.0502
     37 H14        29.9141   32.2272   -3.0431 H           1 RJP       0.0144
     38 H15        28.5557   33.1832   -2.4739 H           1 RJP       0.0144
     39 H16        27.9351   24.4210   -2.1740 H           1 RJP       0.2257
     40 H17        29.5577   31.7226   -0.7011 H           1 RJP       0.0662
     41 H18        29.0116   29.2282   -0.8780 H           1 RJP       0.1053
@<TRIPOS>BOND
     1    17     1   2
     2    18     2  ar
     3    18     3  ar
     4    21     4   1
     5    22     5   1
     6    23     6   1
     7     8     7   1
     8     7    17   1
     9    19     8   1
    10    19     9   2
    11     9    23   1
    12    11    10  ar
    13    12    10  ar
    14    13    11  ar
    15    14    12  ar
    16    20    13  ar
    17    20    14  ar
    18    15    21   1
    19    23    15   1
    20    17    16  am
    21    16    20   1
    22    23    18   1
    23    19    22   1
    24    21    22   1
    25     4    24   1
    26     5    25   1
    27     6    26   1
    28     7    27   1
    29     7    28   1
    30     8    29   1
    31     8    30   1
    32     9    31   1
    33    10    32   1
    34    11    33   1
    35    12    34   1
    36    13    35   1
    37    14    36   1
    38    15    37   1
    39    15    38   1
    40    16    39   1
    41    21    40   1
    42    22    41   1
@<TRIPOS>SUBSTRUCTURE
     1  RJP      7

