@<TRIPOS>MOLECULE
3n86_ligand_012
    41    42
SMALL
GAST_HUCK
****
This file was generated by PARSER (from files_GN.cpp)

@<TRIPOS>ATOM
      1 OAA        24.4102   26.0888   -1.1353 O.2         1 RJP      -0.3845
      2 OAB        17.5271   26.9882   -3.9459 O.co2       1 RJP      -0.5717
      3 OAC        16.3441   28.3220   -2.4750 O.co2       1 RJP      -0.5717
      4 OAD        17.7501   23.1487   -0.1601 O.3         1 RJP      -0.3854
      5 OAE        20.5728   24.0775    0.2981 O.3         1 RJP      -0.3562
      6 OAF        17.7307   27.4456   -0.3398 O.3         1 RJP      -0.4539
      7 CAG        22.3787   27.1033   -1.4031 C.3         1 RJP       0.0698
      8 CAH        21.6654   25.7782   -1.8151 C.3         1 RJP       0.0498
      9 CAI        19.3966   26.6903   -1.7578 C.2         1 RJP      -0.0572
     10 CAJ        28.6080   28.7436   -2.8020 C.ar        1 RJP      -0.0772
     11 CAK        28.1432   27.4187   -2.7558 C.ar        1 RJP      -0.0755
     12 CAL        27.6950   29.8035   -2.6650 C.ar        1 RJP      -0.0755
     13 CAM        26.7724   27.1537   -2.5451 C.ar        1 RJP      -0.0413
     14 CAN        26.3241   29.5327   -2.4764 C.ar        1 RJP      -0.0413
     15 CAO        17.3832   25.2462   -1.3099 C.3         1 RJP      -0.0350
     16 NAP        24.4861   28.0565   -2.1850 N.am        1 RJP      -0.2336
     17 CAQ        23.8261   27.0543   -1.6085 C.2         1 RJP       0.2085
     18 CAR        17.2423   27.3273   -2.6663 C.2         1 RJP       0.0068
     19 CAS        20.2449   25.6884   -1.4260 C.2         1 RJP       0.0428
     20 CAT        25.8372   28.2101   -2.3904 C.ar        1 RJP       0.0662
     21 CAU        18.2723   24.4698   -0.3180 C.3         1 RJP       0.0972
     22 CAV        19.7513   24.4424   -0.8149 C.3         1 RJP       0.1616
     23 CAW        17.9482   26.6790   -1.5285 C.3         1 RJP       0.0564
     24 H1         18.1743   22.7943    0.6527 H           1 RJP       0.2103
     25 H2         20.4549   23.1043    0.3832 H           1 RJP       0.2176
     26 H3         16.7630   27.4657   -0.2157 H           1 RJP       0.1842
     27 H4         22.1921   27.2970   -0.3392 H           1 RJP       0.0562
     28 H5         21.9471   27.9384   -1.9678 H           1 RJP       0.0562
     29 H6         22.2237   24.9397   -1.3761 H           1 RJP       0.0714
     30 H7         21.7423   25.6639   -2.9001 H           1 RJP       0.0714
     31 H8         19.7787   27.5288   -2.1437 H           1 RJP       0.0428
     32 H9         29.6021   28.9370   -2.9469 H           1 RJP       0.0487
     33 H10        28.8041   26.6456   -2.8799 H           1 RJP       0.0577
     34 H11        28.0287   30.7717   -2.7060 H           1 RJP       0.0577
     35 H12        26.4713   26.1793   -2.5266 H           1 RJP       0.0502
     36 H13        25.6831   30.3221   -2.3813 H           1 RJP       0.0502
     37 H14        16.3652   25.2999   -0.9267 H           1 RJP       0.0144
     38 H15        17.3527   24.6939   -2.2518 H           1 RJP       0.0144
     39 H16        23.9412   28.8287   -2.4055 H           1 RJP       0.2257
     40 H17        18.2261   24.9594    0.6599 H           1 RJP       0.0662
     41 H18        19.8376   23.6490   -1.5704 H           1 RJP       0.1053
@<TRIPOS>BOND
     1    17     1   2
     2    18     2  ar
     3    18     3  ar
     4    21     4   1
     5    22     5   1
     6    23     6   1
     7     8     7   1
     8     7    17   1
     9    19     8   1
    10    19     9   2
    11     9    23   1
    12    11    10  ar
    13    12    10  ar
    14    13    11  ar
    15    14    12  ar
    16    20    13  ar
    17    20    14  ar
    18    15    21   1
    19    23    15   1
    20    17    16  am
    21    16    20   1
    22    23    18   1
    23    19    22   1
    24    21    22   1
    25     4    24   1
    26     5    25   1
    27     6    26   1
    28     7    27   1
    29     7    28   1
    30     8    29   1
    31     8    30   1
    32     9    31   1
    33    10    32   1
    34    11    33   1
    35    12    34   1
    36    13    35   1
    37    14    36   1
    38    15    37   1
    39    15    38   1
    40    16    39   1
    41    21    40   1
    42    22    41   1
@<TRIPOS>SUBSTRUCTURE
     1  RJP      7

