@<TRIPOS>MOLECULE
3n86_ligand_006
    41    42
SMALL
GAST_HUCK
****
This file was generated by PARSER (from files_GN.cpp)

@<TRIPOS>ATOM
      1 OAA        28.8809   26.7446   -3.8874 O.2         1 RJP      -0.3845
      2 OAB        27.9064   24.0641    2.0600 O.co2       1 RJP      -0.5717
      3 OAC        29.4169   24.8660    3.5930 O.co2       1 RJP      -0.5717
      4 OAD        29.7506   20.8724    1.6045 O.3         1 RJP      -0.3854
      5 OAE        28.8839   21.2600   -1.2528 O.3         1 RJP      -0.3562
      6 OAF        31.2548   25.3470    1.7293 O.3         1 RJP      -0.4539
      7 CAG        28.1046   24.9696   -2.6451 C.3         1 RJP       0.0698
      8 CAH        29.2315   23.9486   -2.2950 C.3         1 RJP       0.0498
      9 CAI        29.9057   24.5918   -0.0400 C.2         1 RJP      -0.0572
     10 CAJ        30.0975   30.9751   -1.0001 C.ar        1 RJP      -0.0772
     11 CAK        29.5981   30.6694   -2.2760 C.ar        1 RJP      -0.0755
     12 CAL        30.0967   29.9865    0.0043 C.ar        1 RJP      -0.0755
     13 CAM        29.1030   29.3783   -2.5505 C.ar        1 RJP      -0.0413
     14 CAN        29.6076   28.7051   -0.2696 C.ar        1 RJP      -0.0413
     15 CAO        31.0215   22.9634    1.4204 C.3         1 RJP      -0.0350
     16 NAP        28.6355   27.1042   -1.6966 N.am        1 RJP      -0.2336
     17 CAQ        28.5403   26.3502   -2.7780 C.2         1 RJP       0.2085
     18 CAR        29.1753   24.4440    2.3292 C.2         1 RJP       0.0068
     19 CAS        29.4064   23.6390   -0.8638 C.2         1 RJP       0.0428
     20 CAT        29.1075   28.3781   -1.5523 C.ar        1 RJP       0.0662
     21 CAU        30.2797   21.8097    0.6618 C.3         1 RJP       0.0972
     22 CAV        29.1416   22.2950   -0.3014 C.3         1 RJP       0.1616
     23 CAW        30.2972   24.3437    1.3513 C.3         1 RJP       0.0564
     24 H1         29.3989   20.1305    1.0670 H           1 RJP       0.2103
     25 H2         28.6083   20.4826   -0.7193 H           1 RJP       0.2176
     26 H3         30.7864   26.2063    1.6513 H           1 RJP       0.1842
     27 H4         27.2894   24.9088   -1.9147 H           1 RJP       0.0562
     28 H5         27.6782   24.6655   -3.6040 H           1 RJP       0.0562
     29 H6         30.1885   24.2928   -2.7015 H           1 RJP       0.0714
     30 H7         28.9908   23.0426   -2.8505 H           1 RJP       0.0714
     31 H8         30.1948   25.4581   -0.4347 H           1 RJP       0.0428
     32 H9         30.4511   31.9100   -0.7975 H           1 RJP       0.0487
     33 H10        29.5837   31.3887   -3.0020 H           1 RJP       0.0577
     34 H11        30.4545   30.2025    0.9353 H           1 RJP       0.0577
     35 H12        28.7180   29.1958   -3.4791 H           1 RJP       0.0502
     36 H13        29.6265   27.9975    0.4702 H           1 RJP       0.0502
     37 H14        32.0089   23.0793    0.9585 H           1 RJP       0.0144
     38 H15        31.2073   22.6927    2.4635 H           1 RJP       0.0144
     39 H16        28.4202   26.6520   -0.8670 H           1 RJP       0.2257
     40 H17        31.0320   21.2744    0.0702 H           1 RJP       0.0662
     41 H18        28.2113   22.3686    0.2655 H           1 RJP       0.1053
@<TRIPOS>BOND
     1    17     1   2
     2    18     2  ar
     3    18     3  ar
     4    21     4   1
     5    22     5   1
     6    23     6   1
     7     8     7   1
     8     7    17   1
     9    19     8   1
    10    19     9   2
    11     9    23   1
    12    11    10  ar
    13    12    10  ar
    14    13    11  ar
    15    14    12  ar
    16    20    13  ar
    17    20    14  ar
    18    15    21   1
    19    23    15   1
    20    17    16  am
    21    16    20   1
    22    23    18   1
    23    19    22   1
    24    21    22   1
    25     4    24   1
    26     5    25   1
    27     6    26   1
    28     7    27   1
    29     7    28   1
    30     8    29   1
    31     8    30   1
    32     9    31   1
    33    10    32   1
    34    11    33   1
    35    12    34   1
    36    13    35   1
    37    14    36   1
    38    15    37   1
    39    15    38   1
    40    16    39   1
    41    21    40   1
    42    22    41   1
@<TRIPOS>SUBSTRUCTURE
     1  RJP      7

