@<TRIPOS>MOLECULE
3n86_ligand_025
    41    42
SMALL
GAST_HUCK
****
This file was generated by PARSER (from files_GN.cpp)

@<TRIPOS>ATOM
      1 OAA        31.3463   26.0090    0.6067 O.2         1 RJP      -0.3845
      2 OAB        30.2396   32.2175   -1.5737 O.co2       1 RJP      -0.5717
      3 OAC        28.4047   33.5163   -2.1160 O.co2       1 RJP      -0.5717
      4 OAD        26.6302   29.6778   -5.3412 O.3         1 RJP      -0.3854
      5 OAE        27.1614   27.3178   -3.5967 O.3         1 RJP      -0.3562
      6 OAF        26.9609   31.2250   -1.2714 O.3         1 RJP      -0.4539
      7 CAG        29.6962   27.2882   -0.3933 C.3         1 RJP       0.0698
      8 CAH        29.5893   27.5527   -1.9278 C.3         1 RJP       0.0498
      9 CAI        28.7659   29.8486   -1.7103 C.2         1 RJP      -0.0572
     10 CAJ        30.2706   20.7786    0.1547 C.ar        1 RJP      -0.0772
     11 CAK        29.0512   21.2885   -0.3215 C.ar        1 RJP      -0.0755
     12 CAL        31.3083   21.6608    0.5011 C.ar        1 RJP      -0.0755
     13 CAM        28.8689   22.6796   -0.4422 C.ar        1 RJP      -0.0413
     14 CAN        31.1213   23.0519    0.3882 C.ar        1 RJP      -0.0413
     15 CAO        27.6429   31.0451   -3.6190 C.3         1 RJP      -0.0350
     16 NAP        29.6190   24.9078   -0.3045 N.am        1 RJP      -0.2336
     17 CAQ        30.2980   26.0166   -0.0280 C.2         1 RJP       0.2085
     18 CAR        28.9303   32.2881   -1.9104 C.2         1 RJP       0.0068
     19 CAS        28.6979   28.6552   -2.3433 C.2         1 RJP       0.0428
     20 CAT        29.8992   23.5844   -0.0948 C.ar        1 RJP       0.0662
     21 CAU        26.9765   29.6942   -3.9567 C.3         1 RJP       0.0972
     22 CAV        27.9350   28.5170   -3.5980 C.3         1 RJP       0.1616
     23 CAW        28.0929   31.0776   -2.1286 C.3         1 RJP       0.0564
     24 H1         26.0647   28.8872   -5.4670 H           1 RJP       0.2103
     25 H2         26.8767   27.1987   -4.5277 H           1 RJP       0.2176
     26 H3         26.4115   30.4230   -1.4042 H           1 RJP       0.1842
     27 H4         28.7014   27.3225    0.0383 H           1 RJP       0.0562
     28 H5         30.2684   28.0927    0.0728 H           1 RJP       0.0562
     29 H6         29.2749   26.6236   -2.4117 H           1 RJP       0.0714
     30 H7         30.5886   27.7748   -2.3105 H           1 RJP       0.0714
     31 H8         29.2646   29.9028   -0.8538 H           1 RJP       0.0428
     32 H9         30.4151   19.7701    0.2243 H           1 RJP       0.0487
     33 H10        28.2973   20.6528   -0.5922 H           1 RJP       0.0577
     34 H11        32.2091   21.2935    0.8133 H           1 RJP       0.0577
     35 H12        27.9714   23.0260   -0.7980 H           1 RJP       0.0502
     36 H13        31.9018   23.6581    0.6332 H           1 RJP       0.0502
     37 H14        26.9387   31.8585   -3.8195 H           1 RJP       0.0144
     38 H15        28.5112   31.1795   -4.2760 H           1 RJP       0.0144
     39 H16        28.7626   25.0634   -0.7352 H           1 RJP       0.2257
     40 H17        26.0512   29.6075   -3.3820 H           1 RJP       0.0662
     41 H18        28.6684   28.4214   -4.4012 H           1 RJP       0.1053
@<TRIPOS>BOND
     1    17     1   2
     2    18     2  ar
     3    18     3  ar
     4    21     4   1
     5    22     5   1
     6    23     6   1
     7     8     7   1
     8     7    17   1
     9    19     8   1
    10    19     9   2
    11     9    23   1
    12    11    10  ar
    13    12    10  ar
    14    13    11  ar
    15    14    12  ar
    16    20    13  ar
    17    20    14  ar
    18    15    21   1
    19    23    15   1
    20    17    16  am
    21    16    20   1
    22    23    18   1
    23    19    22   1
    24    21    22   1
    25     4    24   1
    26     5    25   1
    27     6    26   1
    28     7    27   1
    29     7    28   1
    30     8    29   1
    31     8    30   1
    32     9    31   1
    33    10    32   1
    34    11    33   1
    35    12    34   1
    36    13    35   1
    37    14    36   1
    38    15    37   1
    39    15    38   1
    40    16    39   1
    41    21    40   1
    42    22    41   1
@<TRIPOS>SUBSTRUCTURE
     1  RJP      7

