@<TRIPOS>MOLECULE
3nox_ligand_023
    48    51
SMALL
GAST_HUCK
****
This file was generated by PARSER (from files_GN.cpp)

@<TRIPOS>ATOM
      1 C1         48.0625   49.8524   32.6645 C.2         1 MOL       0.1404
      2 C2         47.4104   48.6658   32.4461 C.2         1 MOL       0.0782
      3 C3         48.0021   47.4885   32.9452 C.2         1 MOL       0.0387
      4 N4         49.1718   47.5399   33.5732 N.2         1 MOL      -0.2660
      5 N5         49.2577   49.8521   33.3191 N.pl3       1 MOL      -0.1859
      6 C6         49.8082   48.7106   33.7653 C.2         1 MOL       0.1941
      7 N7         50.9734   48.9414   34.3832 N.2         1 MOL      -0.3175
      8 C8         51.2052   50.2667   34.3447 C.2         1 MOL       0.0787
      9 C9         50.1156   50.8317   33.6674 C.2         1 MOL       0.0743
     10 C10        52.2996   50.9426   34.9025 C.2         1 MOL       0.1958
     11 O11        52.2396   52.1644   34.7950 O.2         1 MOL      -0.3941
     12 N12        53.3642   50.3980   35.5374 N.am        1 MOL      -0.2710
     13 C13        47.4286   46.1507   32.8319 C.3         1 MOL      -0.0096
     14 C14        47.5694   51.0889   32.2323 C.ar        1 MOL       0.0400
     15 C15        46.1278   48.5939   31.7141 C.3         1 MOL       0.0036
     16 N16        44.9839   48.6094   32.6372 N.4         1 MOL       0.2296
     17 C17        48.2002   51.7165   31.1321 C.ar        1 MOL      -0.0470
     18 C18        47.7419   52.9554   30.6535 C.ar        1 MOL      -0.0451
     19 C19        46.6325   53.5754   31.2558 C.ar        1 MOL       0.0429
     20 C20        46.0101   52.9713   32.3646 C.ar        1 MOL      -0.0313
     21 C21        46.4943   51.7514   32.8805 C.ar        1 MOL       0.0551
     22 CL22       45.7868   51.1408   34.2988 Cl          1 MOL      -0.0670
     23 CL23       46.0542   55.0538   30.6685 Cl          1 MOL      -0.0685
     24 C24        54.3663   51.2156   36.2112 C.3         1 MOL       0.0564
     25 C25        55.8116   50.7868   35.8219 C.3         1 MOL       0.0680
     26 O26        55.9667   49.3881   35.5056 O.3         1 MOL      -0.3758
     27 C27        54.9853   48.5237   36.1040 C.3         1 MOL       0.0680
     28 C28        53.5747   48.9544   35.6080 C.3         1 MOL       0.0564
     29 H1         49.9923   51.8283   33.4715 H           1 MOL       0.0902
     30 H2         48.0271   45.3961   33.3487 H           1 MOL       0.0451
     31 H3         47.3641   45.8551   31.7816 H           1 MOL       0.0451
     32 H4         46.4284   46.1302   33.2691 H           1 MOL       0.0451
     33 H5         46.0589   47.6909   31.1003 H           1 MOL       0.0958
     34 H6         45.9987   49.4203   31.0140 H           1 MOL       0.0958
     35 H7         44.1210   48.4697   32.1023 H           1 MOL       0.2006
     36 H8         44.9395   49.5104   33.1193 H           1 MOL       0.2006
     37 H9         45.0742   47.8586   33.3266 H           1 MOL       0.2006
     38 H10        49.0015   51.2746   30.6743 H           1 MOL       0.0642
     39 H11        48.2208   53.4001   29.8694 H           1 MOL       0.0629
     40 H12        45.2036   53.4304   32.7904 H           1 MOL       0.0634
     41 H13        54.2375   51.0602   37.2891 H           1 MOL       0.0544
     42 H14        54.2719   52.2916   36.0440 H           1 MOL       0.0544
     43 H15        56.4969   51.0347   36.6362 H           1 MOL       0.0580
     44 H16        56.1286   51.3541   34.9444 H           1 MOL       0.0580
     45 H17        55.0523   48.5755   37.1966 H           1 MOL       0.0580
     46 H18        55.1934   47.4937   35.8049 H           1 MOL       0.0580
     47 H19        53.4698   48.5347   34.6022 H           1 MOL       0.0544
     48 H20        52.8219   48.4997   36.2564 H           1 MOL       0.0544
@<TRIPOS>BOND
     1     1     2   2
     2     1     5   1
     3     1    14   1
     4     2     3   1
     5     2    15   1
     6     3     4   2
     7     3    13   1
     8     4     6   1
     9     5     6   1
    10     5     9   1
    11     6     7   2
    12     7     8   1
    13     8     9   2
    14     8    10   1
    15    10    11   2
    16    10    12  am
    17    12    24   1
    18    12    28   1
    19    14    17  ar
    20    14    21  ar
    21    15    16   1
    22    17    18  ar
    23    18    19  ar
    24    19    20  ar
    25    19    23   1
    26    20    21  ar
    27    21    22   1
    28    24    25   1
    29    25    26   1
    30    26    27   1
    31    27    28   1
    32     9    29   1
    33    13    30   1
    34    13    31   1
    35    13    32   1
    36    15    33   1
    37    15    34   1
    38    16    35   1
    39    16    36   1
    40    16    37   1
    41    17    38   1
    42    18    39   1
    43    20    40   1
    44    24    41   1
    45    24    42   1
    46    25    43   1
    47    25    44   1
    48    27    45   1
    49    27    46   1
    50    28    47   1
    51    28    48   1
@<TRIPOS>SUBSTRUCTURE
     1  MOL      1

