@<TRIPOS>MOLECULE
3nox_ligand_067
    48    51
SMALL
GAST_HUCK
****
This file was generated by PARSER (from files_GN.cpp)

@<TRIPOS>ATOM
      1 C1         47.3278   49.4775   33.2563 C.2         1 MOL       0.1404
      2 C2         47.1739   48.3146   32.5500 C.2         1 MOL       0.0782
      3 C3         47.3009   47.0958   33.2455 C.2         1 MOL       0.0387
      4 N4         47.4981   47.0914   34.5579 N.2         1 MOL      -0.2660
      5 N5         47.5813   49.4245   34.5948 N.pl3       1 MOL      -0.1859
      6 C6         47.6499   48.2461   35.2397 C.2         1 MOL       0.1941
      7 N7         47.8908   48.4239   36.5464 N.2         1 MOL      -0.3175
      8 C8         47.9748   49.7483   36.7632 C.2         1 MOL       0.0787
      9 C9         47.8050   50.3746   35.5262 C.2         1 MOL       0.0743
     10 C10        48.2382   50.3508   37.9885 C.2         1 MOL       0.1958
     11 O11        48.8451   51.4136   37.9163 O.2         1 MOL      -0.3941
     12 N12        47.9076   49.8531   39.2001 N.am        1 MOL      -0.2710
     13 C13        47.2187   45.7728   32.6326 C.3         1 MOL      -0.0096
     14 C14        47.1537   50.7490   32.6984 C.ar        1 MOL       0.0400
     15 C15        46.9007   48.3173   31.1007 C.3         1 MOL       0.0036
     16 N16        48.1496   48.2369   30.3343 N.4         1 MOL       0.2296
     17 C17        45.8591   51.3172   32.7373 C.ar        1 MOL      -0.0470
     18 C18        45.6280   52.6049   32.2239 C.ar        1 MOL      -0.0451
     19 C19        46.6861   53.3427   31.6658 C.ar        1 MOL       0.0429
     20 C20        47.9818   52.7929   31.6339 C.ar        1 MOL      -0.0313
     21 C21        48.2257   51.5042   32.1551 C.ar        1 MOL       0.0551
     22 CL22       49.8238   50.9323   32.1226 Cl          1 MOL      -0.0670
     23 CL23       46.3882   54.8875   31.0452 Cl          1 MOL      -0.0685
     24 C24        48.5343   50.3366   40.4254 C.3         1 MOL       0.0564
     25 C25        49.1804   49.1401   41.1758 C.3         1 MOL       0.0680
     26 O26        48.2432   48.0559   41.3450 O.3         1 MOL      -0.3758
     27 C27        47.6281   47.6118   40.1200 C.3         1 MOL       0.0680
     28 C28        46.9316   48.7955   39.4101 C.3         1 MOL       0.0564
     29 H1         47.8364   51.3843   35.3573 H           1 MOL       0.0902
     30 H2         47.4049   44.9646   33.3449 H           1 MOL       0.0451
     31 H3         47.9519   45.6779   31.8295 H           1 MOL       0.0451
     32 H4         46.2229   45.6209   32.2242 H           1 MOL       0.0451
     33 H5         46.3661   49.2121   30.7765 H           1 MOL       0.0958
     34 H6         46.2603   47.4837   30.8109 H           1 MOL       0.0958
     35 H7         47.9308   48.2284   29.3370 H           1 MOL       0.2006
     36 H8         48.6526   47.3797   30.5752 H           1 MOL       0.2006
     37 H9         48.7395   49.0436   30.5423 H           1 MOL       0.2006
     38 H10        45.0720   50.8024   33.1438 H           1 MOL       0.0642
     39 H11        44.6891   53.0069   32.2642 H           1 MOL       0.0629
     40 H12        48.7488   53.3371   31.2328 H           1 MOL       0.0634
     41 H13        47.7804   50.7887   41.0726 H           1 MOL       0.0544
     42 H14        49.3120   51.0889   40.2631 H           1 MOL       0.0544
     43 H15        49.5153   49.4624   42.1649 H           1 MOL       0.0580
     44 H16        50.0587   48.7943   40.6226 H           1 MOL       0.0580
     45 H17        46.8848   46.8485   40.3547 H           1 MOL       0.0580
     46 H18        48.3775   47.1711   39.4589 H           1 MOL       0.0580
     47 H19        46.4358   48.4237   38.5131 H           1 MOL       0.0544
     48 H20        46.1327   49.1744   40.0543 H           1 MOL       0.0544
@<TRIPOS>BOND
     1     1     2   2
     2     1     5   1
     3     1    14   1
     4     2     3   1
     5     2    15   1
     6     3     4   2
     7     3    13   1
     8     4     6   1
     9     5     6   1
    10     5     9   1
    11     6     7   2
    12     7     8   1
    13     8     9   2
    14     8    10   1
    15    10    11   2
    16    10    12  am
    17    12    24   1
    18    12    28   1
    19    14    17  ar
    20    14    21  ar
    21    15    16   1
    22    17    18  ar
    23    18    19  ar
    24    19    20  ar
    25    19    23   1
    26    20    21  ar
    27    21    22   1
    28    24    25   1
    29    25    26   1
    30    26    27   1
    31    27    28   1
    32     9    29   1
    33    13    30   1
    34    13    31   1
    35    13    32   1
    36    15    33   1
    37    15    34   1
    38    16    35   1
    39    16    36   1
    40    16    37   1
    41    17    38   1
    42    18    39   1
    43    20    40   1
    44    24    41   1
    45    24    42   1
    46    25    43   1
    47    25    44   1
    48    27    45   1
    49    27    46   1
    50    28    47   1
    51    28    48   1
@<TRIPOS>SUBSTRUCTURE
     1  MOL      1

