@<TRIPOS>MOLECULE
3nox_ligand_046
    48    51
SMALL
GAST_HUCK
****
This file was generated by PARSER (from files_GN.cpp)

@<TRIPOS>ATOM
      1 C1         58.9104   47.0344   33.5505 C.2         1 MOL       0.1404
      2 C2         59.7542   46.4193   32.6638 C.2         1 MOL       0.0782
      3 C3         60.5283   47.2392   31.8218 C.2         1 MOL       0.0387
      4 N4         60.4063   48.5622   31.8695 N.2         1 MOL      -0.2660
      5 N5         58.8146   48.3916   33.5589 N.pl3       1 MOL      -0.1859
      6 C6         59.5481   49.1508   32.7268 C.2         1 MOL       0.1941
      7 N7         59.2949   50.4556   32.9088 N.2         1 MOL      -0.3175
      8 C8         58.3548   50.5502   33.8704 C.2         1 MOL       0.0787
      9 C9         58.0799   49.2489   34.2938 C.2         1 MOL       0.0743
     10 C10        57.8530   51.7485   34.3734 C.2         1 MOL       0.1958
     11 O11        58.6551   52.6748   34.3180 O.2         1 MOL      -0.3941
     12 N12        56.6344   51.9647   34.9164 N.am        1 MOL      -0.2710
     13 C13        61.5075   46.7487   30.8604 C.3         1 MOL      -0.0096
     14 C14        58.0904   46.3375   34.4411 C.ar        1 MOL       0.0400
     15 C15        59.8772   44.9480   32.6246 C.3         1 MOL       0.0036
     16 N16        60.7883   44.4736   33.6735 N.4         1 MOL       0.2296
     17 C17        58.5664   46.0832   35.7480 C.ar        1 MOL      -0.0470
     18 C18        57.7481   45.4432   36.6944 C.ar        1 MOL      -0.0451
     19 C19        56.4382   45.0618   36.3505 C.ar        1 MOL       0.0429
     20 C20        55.9518   45.3165   35.0545 C.ar        1 MOL      -0.0313
     21 C21        56.7657   45.9573   34.0983 C.ar        1 MOL       0.0551
     22 CL22       56.0980   46.2604   32.5657 Cl          1 MOL      -0.0670
     23 CL23       55.4386   44.3200   37.4954 Cl          1 MOL      -0.0685
     24 C24        55.5251   51.0337   34.7769 C.3         1 MOL       0.0564
     25 C25        54.1541   51.7412   34.5602 C.3         1 MOL       0.0680
     26 O26        54.0224   53.0505   35.1520 O.3         1 MOL      -0.3758
     27 C27        54.9463   53.3357   36.2125 C.3         1 MOL       0.0680
     28 C28        56.3911   53.1900   35.6711 C.3         1 MOL       0.0564
     29 H1         57.4472   48.9875   35.0524 H           1 MOL       0.0902
     30 H2         62.0550   47.5590   30.3711 H           1 MOL       0.0451
     31 H3         61.0041   46.1748   30.0808 H           1 MOL       0.0451
     32 H4         62.2402   46.1131   31.3609 H           1 MOL       0.0451
     33 H5         60.2525   44.5793   31.6708 H           1 MOL       0.0958
     34 H6         58.9080   44.4629   32.7597 H           1 MOL       0.0958
     35 H7         60.7865   43.4516   33.6915 H           1 MOL       0.2006
     36 H8         60.4864   44.8203   34.5854 H           1 MOL       0.2006
     37 H9         61.7357   44.8076   33.4832 H           1 MOL       0.2006
     38 H10        59.5106   46.3690   36.0254 H           1 MOL       0.0642
     39 H11        58.1115   45.2668   37.6339 H           1 MOL       0.0629
     40 H12        54.9958   45.0430   34.8114 H           1 MOL       0.0634
     41 H13        55.4693   50.4477   35.6990 H           1 MOL       0.0544
     42 H14        55.6563   50.3377   33.9452 H           1 MOL       0.0544
     43 H15        53.3551   51.1053   34.9484 H           1 MOL       0.0580
     44 H16        53.9810   51.8664   33.4890 H           1 MOL       0.0580
     45 H17        54.7821   52.6567   37.0539 H           1 MOL       0.0580
     46 H18        54.7772   54.3565   36.5597 H           1 MOL       0.0580
     47 H19        56.5803   54.0497   35.0211 H           1 MOL       0.0544
     48 H20        57.0802   53.2446   36.5195 H           1 MOL       0.0544
@<TRIPOS>BOND
     1     1     2   2
     2     1     5   1
     3     1    14   1
     4     2     3   1
     5     2    15   1
     6     3     4   2
     7     3    13   1
     8     4     6   1
     9     5     6   1
    10     5     9   1
    11     6     7   2
    12     7     8   1
    13     8     9   2
    14     8    10   1
    15    10    11   2
    16    10    12  am
    17    12    24   1
    18    12    28   1
    19    14    17  ar
    20    14    21  ar
    21    15    16   1
    22    17    18  ar
    23    18    19  ar
    24    19    20  ar
    25    19    23   1
    26    20    21  ar
    27    21    22   1
    28    24    25   1
    29    25    26   1
    30    26    27   1
    31    27    28   1
    32     9    29   1
    33    13    30   1
    34    13    31   1
    35    13    32   1
    36    15    33   1
    37    15    34   1
    38    16    35   1
    39    16    36   1
    40    16    37   1
    41    17    38   1
    42    18    39   1
    43    20    40   1
    44    24    41   1
    45    24    42   1
    46    25    43   1
    47    25    44   1
    48    27    45   1
    49    27    46   1
    50    28    47   1
    51    28    48   1
@<TRIPOS>SUBSTRUCTURE
     1  MOL      1

