@<TRIPOS>MOLECULE
3nox_ligand_035
    48    51
SMALL
GAST_HUCK
****
This file was generated by PARSER (from files_GN.cpp)

@<TRIPOS>ATOM
      1 C1         47.7659   50.3830   32.6928 C.2         1 MOL       0.1404
      2 C2         46.8968   51.4446   32.6758 C.2         1 MOL       0.0782
      3 C3         47.3136   52.6314   32.0424 C.2         1 MOL       0.0387
      4 N4         48.5142   52.7047   31.4784 N.2         1 MOL      -0.2660
      5 N5         48.9778   50.5003   32.0825 N.pl3       1 MOL      -0.1859
      6 C6         49.3513   51.6519   31.4935 C.2         1 MOL       0.1941
      7 N7         50.5700   51.5618   30.9484 N.2         1 MOL      -0.3175
      8 C8         50.9943   50.3078   31.1754 C.2         1 MOL       0.0787
      9 C9         50.0001   49.6398   31.8913 C.2         1 MOL       0.0743
     10 C10        52.2100   49.8320   30.7362 C.2         1 MOL       0.1958
     11 O11        53.1657   50.3926   31.2655 O.2         1 MOL      -0.3941
     12 N12        52.3881   48.9648   29.7193 N.am        1 MOL      -0.2710
     13 C13        46.5176   53.8488   31.9276 C.3         1 MOL      -0.0096
     14 C14        47.4576   49.1428   33.2670 C.ar        1 MOL       0.0400
     15 C15        45.5633   51.3643   33.3028 C.3         1 MOL       0.0036
     16 N16        45.6267   51.7163   34.7265 N.4         1 MOL       0.2296
     17 C17        47.1682   48.0570   32.4073 C.ar        1 MOL      -0.0470
     18 C18        46.8882   46.7812   32.9254 C.ar        1 MOL      -0.0451
     19 C19        46.8671   46.5718   34.3175 C.ar        1 MOL       0.0429
     20 C20        47.1631   47.6420   35.1855 C.ar        1 MOL      -0.0313
     21 C21        47.5006   48.9108   34.6666 C.ar        1 MOL       0.0551
     22 CL22       48.0151   50.1096   35.7544 Cl          1 MOL      -0.0670
     23 CL23       46.5646   45.0262   34.9409 Cl          1 MOL      -0.0685
     24 C24        53.7030   48.6906   29.1600 C.3         1 MOL       0.0564
     25 C25        53.7179   49.1293   27.6732 C.3         1 MOL       0.0680
     26 O26        52.6450   48.4993   26.9444 O.3         1 MOL      -0.3758
     27 C27        51.3406   48.7427   27.5080 C.3         1 MOL       0.0680
     28 C28        51.2948   48.3224   29.0020 C.3         1 MOL       0.0564
     29 H1         50.0457   48.6689   32.2076 H           1 MOL       0.0902
     30 H2         47.0526   54.6559   31.4201 H           1 MOL       0.0451
     31 H3         46.2442   54.2072   32.9206 H           1 MOL       0.0451
     32 H4         45.6133   53.6519   31.3497 H           1 MOL       0.0451
     33 H5         45.1298   50.3683   33.2140 H           1 MOL       0.0958
     34 H6         44.8364   52.0280   32.8365 H           1 MOL       0.0958
     35 H7         44.6802   51.7231   35.1037 H           1 MOL       0.2006
     36 H8         46.0384   52.6443   34.8457 H           1 MOL       0.2006
     37 H9         46.1835   51.0313   35.2410 H           1 MOL       0.2006
     38 H10        47.1797   48.1837   31.3903 H           1 MOL       0.0642
     39 H11        46.7130   46.0039   32.2852 H           1 MOL       0.0629
     40 H12        47.1635   47.4799   36.1967 H           1 MOL       0.0634
     41 H13        53.9078   47.6176   29.2216 H           1 MOL       0.0544
     42 H14        54.5233   49.1981   29.6734 H           1 MOL       0.0544
     43 H15        54.6633   48.8363   27.2145 H           1 MOL       0.0580
     44 H16        53.6299   50.2165   27.6005 H           1 MOL       0.0580
     45 H17        50.6077   48.1621   26.9433 H           1 MOL       0.0580
     46 H18        51.0807   49.8003   27.4105 H           1 MOL       0.0580
     47 H19        50.2996   48.5537   29.3857 H           1 MOL       0.0544
     48 H20        51.4120   47.2354   29.0680 H           1 MOL       0.0544
@<TRIPOS>BOND
     1     1     2   2
     2     1     5   1
     3     1    14   1
     4     2     3   1
     5     2    15   1
     6     3     4   2
     7     3    13   1
     8     4     6   1
     9     5     6   1
    10     5     9   1
    11     6     7   2
    12     7     8   1
    13     8     9   2
    14     8    10   1
    15    10    11   2
    16    10    12  am
    17    12    24   1
    18    12    28   1
    19    14    17  ar
    20    14    21  ar
    21    15    16   1
    22    17    18  ar
    23    18    19  ar
    24    19    20  ar
    25    19    23   1
    26    20    21  ar
    27    21    22   1
    28    24    25   1
    29    25    26   1
    30    26    27   1
    31    27    28   1
    32     9    29   1
    33    13    30   1
    34    13    31   1
    35    13    32   1
    36    15    33   1
    37    15    34   1
    38    16    35   1
    39    16    36   1
    40    16    37   1
    41    17    38   1
    42    18    39   1
    43    20    40   1
    44    24    41   1
    45    24    42   1
    46    25    43   1
    47    25    44   1
    48    27    45   1
    49    27    46   1
    50    28    47   1
    51    28    48   1
@<TRIPOS>SUBSTRUCTURE
     1  MOL      1

