@<TRIPOS>MOLECULE
3nox_ligand_003
    48    51
SMALL
GAST_HUCK
****
This file was generated by PARSER (from files_GN.cpp)

@<TRIPOS>ATOM
      1 C1         46.8549   47.4562   32.6707 C.2         1 MOL       0.1404
      2 C2         46.9976   46.1396   33.0359 C.2         1 MOL       0.0782
      3 C3         47.2658   45.2014   32.0183 C.2         1 MOL       0.0387
      4 N4         47.3909   45.5914   30.7573 N.2         1 MOL      -0.2660
      5 N5         46.9494   47.7993   31.3533 N.pl3       1 MOL      -0.1859
      6 C6         47.2389   46.8818   30.4123 C.2         1 MOL       0.1941
      7 N7         47.3346   47.4226   29.1908 N.2         1 MOL      -0.3175
      8 C8         47.0586   48.7282   29.3360 C.2         1 MOL       0.0787
      9 C9         46.8285   48.9680   30.6901 C.2         1 MOL       0.0743
     10 C10        47.0888   49.6634   28.3191 C.2         1 MOL       0.1958
     11 O11        48.0834   49.5866   27.6081 O.2         1 MOL      -0.3941
     12 N12        46.1519   50.6054   28.0965 N.am        1 MOL      -0.2710
     13 C13        47.4210   43.7645   32.2103 C.3         1 MOL      -0.0096
     14 C14        46.6883   48.5006   33.5930 C.ar        1 MOL       0.0400
     15 C15        46.8427   45.6879   34.4362 C.3         1 MOL       0.0036
     16 N16        45.4895   45.1807   34.7002 N.4         1 MOL       0.2296
     17 C17        47.8181   48.9397   34.3253 C.ar        1 MOL      -0.0470
     18 C18        47.7048   49.9627   35.2828 C.ar        1 MOL      -0.0451
     19 C19        46.4624   50.5823   35.5048 C.ar        1 MOL       0.0429
     20 C20        45.3357   50.1818   34.7631 C.ar        1 MOL      -0.0313
     21 C21        45.4399   49.1442   33.8110 C.ar        1 MOL       0.0551
     22 CL22       44.0347   48.7217   32.9587 Cl          1 MOL      -0.0670
     23 CL23       46.3375   51.8271   36.6426 Cl          1 MOL      -0.0685
     24 C24        46.3988   51.7258   27.1962 C.3         1 MOL       0.0564
     25 C25        45.3378   51.7372   26.0697 C.3         1 MOL       0.0680
     26 O26        44.0190   51.7244   26.6500 O.3         1 MOL      -0.3758
     27 C27        43.7831   50.5580   27.4588 C.3         1 MOL       0.0680
     28 C28        44.7962   50.5239   28.6314 C.3         1 MOL       0.0564
     29 H1         46.6349   49.8832   31.1021 H           1 MOL       0.0902
     30 H2         47.5915   43.2377   31.2663 H           1 MOL       0.0451
     31 H3         46.5195   43.3463   32.6542 H           1 MOL       0.0451
     32 H4         48.2740   43.5604   32.8575 H           1 MOL       0.0451
     33 H5         47.0116   46.4841   35.1606 H           1 MOL       0.0958
     34 H6         47.5664   44.9106   34.6879 H           1 MOL       0.0958
     35 H7         45.3872   45.0267   35.7054 H           1 MOL       0.2006
     36 H8         45.3271   44.2992   34.2056 H           1 MOL       0.2006
     37 H9         44.7993   45.8755   34.4065 H           1 MOL       0.2006
     38 H10        48.7370   48.5146   34.1699 H           1 MOL       0.0642
     39 H11        48.5303   50.2501   35.8145 H           1 MOL       0.0629
     40 H12        44.4384   50.6544   34.9164 H           1 MOL       0.0634
     41 H13        47.3862   51.7130   26.7258 H           1 MOL       0.0544
     42 H14        46.3283   52.6614   27.7609 H           1 MOL       0.0544
     43 H15        45.4747   50.8716   25.4152 H           1 MOL       0.0580
     44 H16        45.4499   52.6376   25.4635 H           1 MOL       0.0580
     45 H17        43.8713   49.6508   26.8544 H           1 MOL       0.0580
     46 H18        42.7640   50.6016   27.8420 H           1 MOL       0.0580
     47 H19        44.6060   51.3709   29.2981 H           1 MOL       0.0544
     48 H20        44.5978   49.6101   29.1944 H           1 MOL       0.0544
@<TRIPOS>BOND
     1     1     2   2
     2     1     5   1
     3     1    14   1
     4     2     3   1
     5     2    15   1
     6     3     4   2
     7     3    13   1
     8     4     6   1
     9     5     6   1
    10     5     9   1
    11     6     7   2
    12     7     8   1
    13     8     9   2
    14     8    10   1
    15    10    11   2
    16    10    12  am
    17    12    24   1
    18    12    28   1
    19    14    17  ar
    20    14    21  ar
    21    15    16   1
    22    17    18  ar
    23    18    19  ar
    24    19    20  ar
    25    19    23   1
    26    20    21  ar
    27    21    22   1
    28    24    25   1
    29    25    26   1
    30    26    27   1
    31    27    28   1
    32     9    29   1
    33    13    30   1
    34    13    31   1
    35    13    32   1
    36    15    33   1
    37    15    34   1
    38    16    35   1
    39    16    36   1
    40    16    37   1
    41    17    38   1
    42    18    39   1
    43    20    40   1
    44    24    41   1
    45    24    42   1
    46    25    43   1
    47    25    44   1
    48    27    45   1
    49    27    46   1
    50    28    47   1
    51    28    48   1
@<TRIPOS>SUBSTRUCTURE
     1  MOL      1

