@<TRIPOS>MOLECULE
3nox_ligand_017
    48    51
SMALL
GAST_HUCK
****
This file was generated by PARSER (from files_GN.cpp)

@<TRIPOS>ATOM
      1 C1         48.1479   50.8575   33.7493 C.2         1 MOL       0.1404
      2 C2         47.8491   50.6713   35.0733 C.2         1 MOL       0.0782
      3 C3         48.9230   50.5232   35.9721 C.2         1 MOL       0.0387
      4 N4         50.1776   50.5893   35.5391 N.2         1 MOL      -0.2660
      5 N5         49.4483   50.9105   33.3569 N.pl3       1 MOL      -0.1859
      6 C6         50.4537   50.7926   34.2376 C.2         1 MOL       0.1941
      7 N7         51.6461   50.8812   33.6305 N.2         1 MOL      -0.3175
      8 C8         51.4166   51.0645   32.3145 C.2         1 MOL       0.0787
      9 C9         50.0311   51.0300   32.1504 C.2         1 MOL       0.0743
     10 C10        52.4119   51.1631   31.3430 C.2         1 MOL       0.1958
     11 O11        53.4805   50.6634   31.6801 O.2         1 MOL      -0.3941
     12 N12        52.3076   51.7153   30.1138 N.am        1 MOL      -0.2710
     13 C13        48.7832   50.2508   37.3989 C.3         1 MOL      -0.0096
     14 C14        47.1800   50.9890   32.7507 C.ar        1 MOL       0.0400
     15 C15        46.4567   50.6337   35.5675 C.3         1 MOL       0.0036
     16 N16        46.0747   51.8731   36.2550 N.4         1 MOL       0.2296
     17 C17        46.8574   52.2809   32.2695 C.ar        1 MOL      -0.0470
     18 C18        45.9010   52.4455   31.2510 C.ar        1 MOL      -0.0451
     19 C19        45.2548   51.3226   30.7026 C.ar        1 MOL       0.0429
     20 C20        45.5794   50.0334   31.1629 C.ar        1 MOL      -0.0313
     21 C21        46.5447   49.8567   32.1744 C.ar        1 MOL       0.0551
     22 CL22       46.9053   48.2668   32.6543 Cl          1 MOL      -0.0670
     23 CL23       44.0899   51.5170   29.4898 Cl          1 MOL      -0.0685
     24 C24        51.2547   52.6400   29.7184 C.3         1 MOL       0.0564
     25 C25        51.8601   53.9573   29.1783 C.3         1 MOL       0.0680
     26 O26        52.8311   53.7002   28.1513 O.3         1 MOL      -0.3758
     27 C27        53.8878   52.8162   28.5744 C.3         1 MOL       0.0680
     28 C28        53.2980   51.4737   29.0722 C.3         1 MOL       0.0564
     29 H1         49.5321   51.0693   31.2632 H           1 MOL       0.0902
     30 H2         49.7479   50.0966   37.8866 H           1 MOL       0.0451
     31 H3         48.1951   49.3462   37.5619 H           1 MOL       0.0451
     32 H4         48.2981   51.0914   37.8963 H           1 MOL       0.0451
     33 H5         46.3018   49.7938   36.2456 H           1 MOL       0.0958
     34 H6         45.7223   50.4961   34.7770 H           1 MOL       0.0958
     35 H7         45.0736   51.8551   36.4471 H           1 MOL       0.2006
     36 H8         46.2826   52.6822   35.6662 H           1 MOL       0.2006
     37 H9         46.5692   51.9646   37.1409 H           1 MOL       0.2006
     38 H10        47.3170   53.1119   32.6554 H           1 MOL       0.0642
     39 H11        45.6792   53.3847   30.9136 H           1 MOL       0.0629
     40 H12        45.1134   49.2185   30.7563 H           1 MOL       0.0634
     41 H13        50.5988   52.9500   30.5246 H           1 MOL       0.0544
     42 H14        50.6391   52.1753   28.9426 H           1 MOL       0.0544
     43 H15        52.3232   54.5185   29.9953 H           1 MOL       0.0580
     44 H16        51.0647   54.5759   28.7576 H           1 MOL       0.0580
     45 H17        54.4786   53.2860   29.3658 H           1 MOL       0.0580
     46 H18        54.5447   52.6350   27.7233 H           1 MOL       0.0580
     47 H19        52.8093   50.9748   28.2301 H           1 MOL       0.0544
     48 H20        54.1253   50.8285   29.3775 H           1 MOL       0.0544
@<TRIPOS>BOND
     1     1     2   2
     2     1     5   1
     3     1    14   1
     4     2     3   1
     5     2    15   1
     6     3     4   2
     7     3    13   1
     8     4     6   1
     9     5     6   1
    10     5     9   1
    11     6     7   2
    12     7     8   1
    13     8     9   2
    14     8    10   1
    15    10    11   2
    16    10    12  am
    17    12    24   1
    18    12    28   1
    19    14    17  ar
    20    14    21  ar
    21    15    16   1
    22    17    18  ar
    23    18    19  ar
    24    19    20  ar
    25    19    23   1
    26    20    21  ar
    27    21    22   1
    28    24    25   1
    29    25    26   1
    30    26    27   1
    31    27    28   1
    32     9    29   1
    33    13    30   1
    34    13    31   1
    35    13    32   1
    36    15    33   1
    37    15    34   1
    38    16    35   1
    39    16    36   1
    40    16    37   1
    41    17    38   1
    42    18    39   1
    43    20    40   1
    44    24    41   1
    45    24    42   1
    46    25    43   1
    47    25    44   1
    48    27    45   1
    49    27    46   1
    50    28    47   1
    51    28    48   1
@<TRIPOS>SUBSTRUCTURE
     1  MOL      1

