@<TRIPOS>MOLECULE
3nox_ligand_037
    48    51
SMALL
GAST_HUCK
****
This file was generated by PARSER (from files_GN.cpp)

@<TRIPOS>ATOM
      1 C1         49.0077   49.3199   34.2275 C.2         1 MOL       0.1404
      2 C2         47.8760   49.0205   34.9415 C.2         1 MOL       0.0782
      3 C3         47.7397   49.5852   36.2236 C.2         1 MOL       0.0387
      4 N4         48.6971   50.3567   36.7243 N.2         1 MOL      -0.2660
      5 N5         49.9566   50.1329   34.7761 N.pl3       1 MOL      -0.1859
      6 C6         49.8107   50.6347   36.0173 C.2         1 MOL       0.1941
      7 N7         50.8643   51.3843   36.3742 N.2         1 MOL      -0.3175
      8 C8         51.7121   51.3726   35.3332 C.2         1 MOL       0.0787
      9 C9         51.1413   50.5974   34.3290 C.2         1 MOL       0.0743
     10 C10        52.9116   52.0529   35.2797 C.2         1 MOL       0.1958
     11 O11        52.9116   53.0039   34.5073 O.2         1 MOL      -0.3941
     12 N12        54.0040   51.7519   36.0030 N.am        1 MOL      -0.2710
     13 C13        46.5974   49.3764   37.1064 C.3         1 MOL      -0.0096
     14 C14        49.2726   48.8152   32.9481 C.ar        1 MOL       0.0400
     15 C15        46.7946   48.1786   34.3850 C.3         1 MOL       0.0036
     16 N16        45.7569   48.9874   33.7339 N.4         1 MOL       0.2296
     17 C17        49.5811   47.4395   32.8109 C.ar        1 MOL      -0.0470
     18 C18        49.8830   46.8941   31.5512 C.ar        1 MOL      -0.0451
     19 C19        49.9144   47.7223   30.4154 C.ar        1 MOL       0.0429
     20 C20        49.6353   49.0953   30.5417 C.ar        1 MOL      -0.0313
     21 C21        49.3109   49.6482   31.7973 C.ar        1 MOL       0.0551
     22 CL22       48.9748   51.3135   31.8625 Cl          1 MOL      -0.0670
     23 CL23       50.2935   47.0665   28.9020 Cl          1 MOL      -0.0685
     24 C24        54.1834   50.4758   36.6729 C.3         1 MOL       0.0564
     25 C25        55.4721   49.7902   36.1405 C.3         1 MOL       0.0680
     26 O26        56.6088   50.6746   36.2267 O.3         1 MOL      -0.3758
     27 C27        56.4137   51.9347   35.5551 C.3         1 MOL       0.0680
     28 C28        55.1473   52.6501   36.0902 C.3         1 MOL       0.0564
     29 H1         51.5665   50.4075   33.4171 H           1 MOL       0.0902
     30 H2         46.6918   49.9267   38.0455 H           1 MOL       0.0451
     31 H3         46.5119   48.3199   37.3588 H           1 MOL       0.0451
     32 H4         45.6802   49.7094   36.6219 H           1 MOL       0.0451
     33 H5         46.3297   47.5639   35.1572 H           1 MOL       0.0958
     34 H6         47.1501   47.4672   33.6429 H           1 MOL       0.0958
     35 H7         45.0432   48.3646   33.3477 H           1 MOL       0.2006
     36 H8         46.1733   49.5308   32.9760 H           1 MOL       0.2006
     37 H9         45.3160   49.6198   34.4055 H           1 MOL       0.2006
     38 H10        49.5773   46.8214   33.6280 H           1 MOL       0.0642
     39 H11        50.0818   45.8948   31.4712 H           1 MOL       0.0629
     40 H12        49.6681   49.6943   29.7143 H           1 MOL       0.0634
     41 H13        53.3597   49.7735   36.5238 H           1 MOL       0.0544
     42 H14        54.2769   50.6447   37.7483 H           1 MOL       0.0544
     43 H15        55.3258   49.4754   35.1022 H           1 MOL       0.0580
     44 H16        55.6831   48.8995   36.7354 H           1 MOL       0.0580
     45 H17        56.3278   51.7786   34.4746 H           1 MOL       0.0580
     46 H18        57.2896   52.5617   35.7375 H           1 MOL       0.0580
     47 H19        55.3068   52.9110   37.1389 H           1 MOL       0.0544
     48 H20        55.0218   53.5888   35.5472 H           1 MOL       0.0544
@<TRIPOS>BOND
     1     1     2   2
     2     1     5   1
     3     1    14   1
     4     2     3   1
     5     2    15   1
     6     3     4   2
     7     3    13   1
     8     4     6   1
     9     5     6   1
    10     5     9   1
    11     6     7   2
    12     7     8   1
    13     8     9   2
    14     8    10   1
    15    10    11   2
    16    10    12  am
    17    12    24   1
    18    12    28   1
    19    14    17  ar
    20    14    21  ar
    21    15    16   1
    22    17    18  ar
    23    18    19  ar
    24    19    20  ar
    25    19    23   1
    26    20    21  ar
    27    21    22   1
    28    24    25   1
    29    25    26   1
    30    26    27   1
    31    27    28   1
    32     9    29   1
    33    13    30   1
    34    13    31   1
    35    13    32   1
    36    15    33   1
    37    15    34   1
    38    16    35   1
    39    16    36   1
    40    16    37   1
    41    17    38   1
    42    18    39   1
    43    20    40   1
    44    24    41   1
    45    24    42   1
    46    25    43   1
    47    25    44   1
    48    27    45   1
    49    27    46   1
    50    28    47   1
    51    28    48   1
@<TRIPOS>SUBSTRUCTURE
     1  MOL      1

