@<TRIPOS>MOLECULE
3nox_ligand_054
    48    51
SMALL
GAST_HUCK
****
This file was generated by PARSER (from files_GN.cpp)

@<TRIPOS>ATOM
      1 C1         46.5082   50.6652   30.7364 C.2         1 MOL       0.1404
      2 C2         46.4391   51.6846   29.8219 C.2         1 MOL       0.0782
      3 C3         46.7170   51.3736   28.4775 C.2         1 MOL       0.0387
      4 N4         47.1214   50.1578   28.1352 N.2         1 MOL      -0.2660
      5 N5         46.8602   49.4202   30.3243 N.pl3       1 MOL      -0.1859
      6 C6         47.2145   49.1727   29.0536 C.2         1 MOL       0.1941
      7 N7         47.6111   47.8998   28.9020 N.2         1 MOL      -0.3175
      8 C8         47.5131   47.2959   30.1054 C.2         1 MOL       0.0787
      9 C9         46.9802   48.2530   30.9780 C.2         1 MOL       0.0743
     10 C10        47.8291   45.9596   30.3489 C.2         1 MOL       0.1958
     11 O11        47.8003   45.2584   29.3453 O.2         1 MOL      -0.3941
     12 N12        48.1600   45.3749   31.5238 N.am        1 MOL      -0.2710
     13 C13        46.5782   52.3113   27.3689 C.3         1 MOL      -0.0096
     14 C14        46.4196   50.8550   32.1143 C.ar        1 MOL       0.0400
     15 C15        46.1271   53.0616   30.2560 C.3         1 MOL       0.0036
     16 N16        44.7146   53.2026   30.6358 N.4         1 MOL       0.2296
     17 C17        45.1778   50.6446   32.7601 C.ar        1 MOL      -0.0470
     18 C18        45.0767   50.7367   34.1605 C.ar        1 MOL      -0.0451
     19 C19        46.2168   51.0127   34.9345 C.ar        1 MOL       0.0429
     20 C20        47.4609   51.1898   34.3078 C.ar        1 MOL      -0.0313
     21 C21        47.5731   51.1085   32.9038 C.ar        1 MOL       0.0551
     22 CL22       49.1216   51.2940   32.2279 Cl          1 MOL      -0.0670
     23 CL23       46.0874   51.1145   36.6196 Cl          1 MOL      -0.0685
     24 C24        48.1098   43.9353   31.7324 C.3         1 MOL       0.0564
     25 C25        47.1334   43.6437   32.9017 C.3         1 MOL       0.0680
     26 O26        47.4490   44.4252   34.0725 O.3         1 MOL      -0.3758
     27 C27        47.5373   45.8413   33.8202 C.3         1 MOL       0.0680
     28 C28        48.5748   46.1067   32.7053 C.3         1 MOL       0.0564
     29 H1         46.7410   48.0931   31.9589 H           1 MOL       0.0902
     30 H2         46.7521   51.8362   26.3991 H           1 MOL       0.0451
     31 H3         47.3022   53.1184   27.4780 H           1 MOL       0.0451
     32 H4         45.5705   52.7280   27.3570 H           1 MOL       0.0451
     33 H5         46.3245   53.8201   29.4979 H           1 MOL       0.0958
     34 H6         46.7469   53.3357   31.1115 H           1 MOL       0.0958
     35 H7         44.5989   54.0321   31.2187 H           1 MOL       0.2006
     36 H8         44.4022   52.3891   31.1666 H           1 MOL       0.2006
     37 H9         44.1332   53.3018   29.8019 H           1 MOL       0.2006
     38 H10        44.3399   50.4178   32.2191 H           1 MOL       0.0642
     39 H11        44.1644   50.6273   34.6103 H           1 MOL       0.0629
     40 H12        48.2934   51.3725   34.8774 H           1 MOL       0.0634
     41 H13        49.1088   43.5639   31.9898 H           1 MOL       0.0544
     42 H14        47.7760   43.3713   30.8581 H           1 MOL       0.0544
     43 H15        47.1972   42.5924   33.1772 H           1 MOL       0.0580
     44 H16        46.1098   43.8515   32.5840 H           1 MOL       0.0580
     45 H17        47.8440   46.3472   34.7366 H           1 MOL       0.0580
     46 H18        46.5590   46.2341   33.5227 H           1 MOL       0.0580
     47 H19        48.7051   47.1801   32.5463 H           1 MOL       0.0544
     48 H20        49.5499   45.7443   33.0324 H           1 MOL       0.0544
@<TRIPOS>BOND
     1     1     2   2
     2     1     5   1
     3     1    14   1
     4     2     3   1
     5     2    15   1
     6     3     4   2
     7     3    13   1
     8     4     6   1
     9     5     6   1
    10     5     9   1
    11     6     7   2
    12     7     8   1
    13     8     9   2
    14     8    10   1
    15    10    11   2
    16    10    12  am
    17    12    24   1
    18    12    28   1
    19    14    17  ar
    20    14    21  ar
    21    15    16   1
    22    17    18  ar
    23    18    19  ar
    24    19    20  ar
    25    19    23   1
    26    20    21  ar
    27    21    22   1
    28    24    25   1
    29    25    26   1
    30    26    27   1
    31    27    28   1
    32     9    29   1
    33    13    30   1
    34    13    31   1
    35    13    32   1
    36    15    33   1
    37    15    34   1
    38    16    35   1
    39    16    36   1
    40    16    37   1
    41    17    38   1
    42    18    39   1
    43    20    40   1
    44    24    41   1
    45    24    42   1
    46    25    43   1
    47    25    44   1
    48    27    45   1
    49    27    46   1
    50    28    47   1
    51    28    48   1
@<TRIPOS>SUBSTRUCTURE
     1  MOL      1

