@<TRIPOS>MOLECULE
3nox_ligand_007
    48    51
SMALL
GAST_HUCK
****
This file was generated by PARSER (from files_GN.cpp)

@<TRIPOS>ATOM
      1 C1         55.3938   51.1938   34.4418 C.2         1 MOL       0.1404
      2 C2         55.3014   52.5424   34.6772 C.2         1 MOL       0.0782
      3 C3         54.0153   53.1130   34.6873 C.2         1 MOL       0.0387
      4 N4         52.9419   52.3725   34.4180 N.2         1 MOL      -0.2660
      5 N5         54.2680   50.4747   34.1898 N.pl3       1 MOL      -0.1859
      6 C6         53.0554   51.0528   34.1665 C.2         1 MOL       0.1941
      7 N7         52.0965   50.1577   33.8795 N.2         1 MOL      -0.3175
      8 C8         52.7008   48.9708   33.6910 C.2         1 MOL       0.0787
      9 C9         54.0664   49.1754   33.9052 C.2         1 MOL       0.0743
     10 C10        52.1028   47.7509   33.3764 C.2         1 MOL       0.1958
     11 O11        52.6812   46.7834   33.8605 O.2         1 MOL      -0.3941
     12 N12        51.0176   47.5497   32.5995 N.am        1 MOL      -0.2710
     13 C13        53.7289   54.5001   35.0271 C.3         1 MOL      -0.0096
     14 C14        56.6033   50.4939   34.4127 C.ar        1 MOL       0.0400
     15 C15        56.5194   53.3623   34.8526 C.3         1 MOL       0.0036
     16 N16        57.1923   53.1147   36.1338 N.4         1 MOL       0.2296
     17 C17        57.0272   49.8246   35.5874 C.ar        1 MOL      -0.0470
     18 C18        58.1909   49.0421   35.5855 C.ar        1 MOL      -0.0451
     19 C19        58.9382   48.8938   34.4001 C.ar        1 MOL       0.0429
     20 C20        58.5161   49.5397   33.2214 C.ar        1 MOL      -0.0313
     21 C21        57.3585   50.3394   33.2187 C.ar        1 MOL       0.0551
     22 CL22       56.9005   51.0711   31.7537 Cl          1 MOL      -0.0670
     23 CL23       60.3278   47.9301   34.3945 Cl          1 MOL      -0.0685
     24 C24        50.3576   48.5799   31.8138 C.3         1 MOL       0.0564
     25 C25        48.8506   48.6072   32.1752 C.3         1 MOL       0.0680
     26 O26        48.2633   47.3013   31.9786 O.3         1 MOL      -0.3758
     27 C27        48.9207   46.2603   32.7264 C.3         1 MOL       0.0680
     28 C28        50.4378   46.2236   32.4130 C.3         1 MOL       0.0564
     29 H1         54.7939   48.4575   33.8330 H           1 MOL       0.0902
     30 H2         52.6564   54.7105   35.0449 H           1 MOL       0.0451
     31 H3         54.1793   55.1667   34.2910 H           1 MOL       0.0451
     32 H4         54.1254   54.7254   36.0178 H           1 MOL       0.0451
     33 H5         56.3311   54.4312   34.7999 H           1 MOL       0.0958
     34 H6         57.2233   53.1546   34.0456 H           1 MOL       0.0958
     35 H7         58.0665   53.6488   36.1597 H           1 MOL       0.2006
     36 H8         57.3983   52.1239   36.2412 H           1 MOL       0.2006
     37 H9         56.6011   53.4246   36.9077 H           1 MOL       0.2006
     38 H10        56.4815   49.9030   36.4525 H           1 MOL       0.0642
     39 H11        58.4845   48.5735   36.4443 H           1 MOL       0.0629
     40 H12        59.0522   49.4146   32.3616 H           1 MOL       0.0634
     41 H13        50.4557   48.3353   30.7533 H           1 MOL       0.0544
     42 H14        50.7590   49.5837   31.9267 H           1 MOL       0.0544
     43 H15        48.3289   49.3218   31.5321 H           1 MOL       0.0580
     44 H16        48.7167   48.9301   33.2139 H           1 MOL       0.0580
     45 H17        48.4695   45.3044   32.4542 H           1 MOL       0.0580
     46 H18        48.7640   46.4161   33.7950 H           1 MOL       0.0580
     47 H19        50.8857   45.4438   33.0339 H           1 MOL       0.0544
     48 H20        50.5801   45.9171   31.3717 H           1 MOL       0.0544
@<TRIPOS>BOND
     1     1     2   2
     2     1     5   1
     3     1    14   1
     4     2     3   1
     5     2    15   1
     6     3     4   2
     7     3    13   1
     8     4     6   1
     9     5     6   1
    10     5     9   1
    11     6     7   2
    12     7     8   1
    13     8     9   2
    14     8    10   1
    15    10    11   2
    16    10    12  am
    17    12    24   1
    18    12    28   1
    19    14    17  ar
    20    14    21  ar
    21    15    16   1
    22    17    18  ar
    23    18    19  ar
    24    19    20  ar
    25    19    23   1
    26    20    21  ar
    27    21    22   1
    28    24    25   1
    29    25    26   1
    30    26    27   1
    31    27    28   1
    32     9    29   1
    33    13    30   1
    34    13    31   1
    35    13    32   1
    36    15    33   1
    37    15    34   1
    38    16    35   1
    39    16    36   1
    40    16    37   1
    41    17    38   1
    42    18    39   1
    43    20    40   1
    44    24    41   1
    45    24    42   1
    46    25    43   1
    47    25    44   1
    48    27    45   1
    49    27    46   1
    50    28    47   1
    51    28    48   1
@<TRIPOS>SUBSTRUCTURE
     1  MOL      1

