@<TRIPOS>MOLECULE
3nox_ligand_079
    48    51
SMALL
GAST_HUCK
****
This file was generated by PARSER (from files_GN.cpp)

@<TRIPOS>ATOM
      1 C1         52.6984   57.7054   35.5908 C.2         1 MOL       0.1404
      2 C2         51.6956   58.6046   35.8614 C.2         1 MOL       0.0782
      3 C3         52.0169   59.9735   35.8580 C.2         1 MOL       0.0387
      4 N4         53.1992   60.3856   35.4176 N.2         1 MOL      -0.2660
      5 N5         53.8904   58.1823   35.1219 N.pl3       1 MOL      -0.1859
      6 C6         54.1351   59.5064   35.0215 C.2         1 MOL       0.1941
      7 N7         55.3340   59.7566   34.4888 N.2         1 MOL      -0.3175
      8 C8         55.8985   58.5711   34.1884 C.2         1 MOL       0.0787
      9 C9         54.9830   57.5791   34.6230 C.2         1 MOL       0.0743
     10 C10        57.1285   58.4159   33.5666 C.2         1 MOL       0.1958
     11 O11        58.0632   58.8243   34.2732 O.2         1 MOL      -0.3941
     12 N12        57.4006   57.9042   32.3441 N.am        1 MOL      -0.2710
     13 C13        51.1266   61.0414   36.2810 C.3         1 MOL      -0.0096
     14 C14        52.5249   56.3019   35.7122 C.ar        1 MOL       0.0400
     15 C15        50.2913   58.1598   35.9985 C.3         1 MOL       0.0036
     16 N16        49.9687   57.0793   35.0500 N.4         1 MOL       0.2296
     17 C17        51.7702   55.7964   36.8003 C.ar        1 MOL      -0.0470
     18 C18        51.4760   54.4165   36.9026 C.ar        1 MOL      -0.0451
     19 C19        51.9727   53.5141   35.9576 C.ar        1 MOL       0.0429
     20 C20        52.8125   53.9823   34.9328 C.ar        1 MOL      -0.0313
     21 C21        53.0386   55.3695   34.7716 C.ar        1 MOL       0.0551
     22 CL22       53.8997   55.8635   33.4003 Cl          1 MOL      -0.0670
     23 CL23       51.5422   51.8712   36.0180 Cl          1 MOL      -0.0685
     24 C24        58.7507   57.7170   31.8562 C.3         1 MOL       0.0564
     25 C25        58.9545   58.4209   30.4846 C.3         1 MOL       0.0680
     26 O26        57.7645   58.5108   29.6708 O.3         1 MOL      -0.3758
     27 C27        56.7960   57.4763   29.9178 C.3         1 MOL       0.0680
     28 C28        56.3414   57.5511   31.4068 C.3         1 MOL       0.0564
     29 H1         55.1127   56.5795   34.5522 H           1 MOL       0.0902
     30 H2         51.6270   62.0186   36.3183 H           1 MOL       0.0451
     31 H3         50.7352   60.8365   37.2786 H           1 MOL       0.0451
     32 H4         50.3012   61.1249   35.5756 H           1 MOL       0.0451
     33 H5         49.5589   58.9320   35.7818 H           1 MOL       0.0958
     34 H6         50.1110   57.8236   37.0254 H           1 MOL       0.0958
     35 H7         48.9808   56.8235   35.1215 H           1 MOL       0.2006
     36 H8         50.5430   56.2603   35.2465 H           1 MOL       0.2006
     37 H9         50.1681   57.3986   34.1028 H           1 MOL       0.2006
     38 H10        51.3759   56.4403   37.4954 H           1 MOL       0.0642
     39 H11        50.8872   54.0780   37.6647 H           1 MOL       0.0629
     40 H12        53.2343   53.3166   34.2848 H           1 MOL       0.0634
     41 H13        58.9052   56.6384   31.7243 H           1 MOL       0.0544
     42 H14        59.5402   58.0543   32.5333 H           1 MOL       0.0544
     43 H15        59.7290   57.9018   29.9198 H           1 MOL       0.0580
     44 H16        59.2956   59.4446   30.6571 H           1 MOL       0.0580
     45 H17        57.2309   56.5002   29.6918 H           1 MOL       0.0580
     46 H18        55.9424   57.6259   29.2532 H           1 MOL       0.0580
     47 H19        55.5530   58.3119   31.4482 H           1 MOL       0.0544
     48 H20        55.9088   56.5858   31.6830 H           1 MOL       0.0544
@<TRIPOS>BOND
     1     1     2   2
     2     1     5   1
     3     1    14   1
     4     2     3   1
     5     2    15   1
     6     3     4   2
     7     3    13   1
     8     4     6   1
     9     5     6   1
    10     5     9   1
    11     6     7   2
    12     7     8   1
    13     8     9   2
    14     8    10   1
    15    10    11   2
    16    10    12  am
    17    12    24   1
    18    12    28   1
    19    14    17  ar
    20    14    21  ar
    21    15    16   1
    22    17    18  ar
    23    18    19  ar
    24    19    20  ar
    25    19    23   1
    26    20    21  ar
    27    21    22   1
    28    24    25   1
    29    25    26   1
    30    26    27   1
    31    27    28   1
    32     9    29   1
    33    13    30   1
    34    13    31   1
    35    13    32   1
    36    15    33   1
    37    15    34   1
    38    16    35   1
    39    16    36   1
    40    16    37   1
    41    17    38   1
    42    18    39   1
    43    20    40   1
    44    24    41   1
    45    24    42   1
    46    25    43   1
    47    25    44   1
    48    27    45   1
    49    27    46   1
    50    28    47   1
    51    28    48   1
@<TRIPOS>SUBSTRUCTURE
     1  MOL      1

