@<TRIPOS>MOLECULE
3nox_ligand_032
    48    51
SMALL
GAST_HUCK
****
This file was generated by PARSER (from files_GN.cpp)

@<TRIPOS>ATOM
      1 C1         48.6506   49.4039   35.2211 C.2         1 MOL       0.1404
      2 C2         48.1957   50.4153   36.0314 C.2         1 MOL       0.0782
      3 C3         49.1012   51.4372   36.3759 C.2         1 MOL       0.0387
      4 N4         50.3495   51.4221   35.9241 N.2         1 MOL      -0.2660
      5 N5         49.9540   49.4226   34.7996 N.pl3       1 MOL      -0.1859
      6 C6         50.7951   50.4204   35.1411 C.2         1 MOL       0.1941
      7 N7         52.0255   50.2433   34.6230 N.2         1 MOL      -0.3175
      8 C8         51.9779   49.0985   33.9228 C.2         1 MOL       0.0787
      9 C9         50.6918   48.5799   34.0458 C.2         1 MOL       0.0743
     10 C10        52.9954   48.5289   33.1789 C.2         1 MOL       0.1958
     11 O11        52.7841   48.5589   31.9736 O.2         1 MOL      -0.3941
     12 N12        54.0594   47.8687   33.6776 N.am        1 MOL      -0.2710
     13 C13        48.8127   52.5178   37.3089 C.3         1 MOL      -0.0096
     14 C14        47.8634   48.3106   34.8274 C.ar        1 MOL       0.0400
     15 C15        46.7925   50.5046   36.4982 C.3         1 MOL       0.0036
     16 N16        46.0048   51.4632   35.7120 N.4         1 MOL       0.2296
     17 C17        47.3631   47.4487   35.8331 C.ar        1 MOL      -0.0470
     18 C18        46.6362   46.2976   35.4978 C.ar        1 MOL      -0.0451
     19 C19        46.4351   45.9534   34.1525 C.ar        1 MOL       0.0429
     20 C20        46.9348   46.7884   33.1372 C.ar        1 MOL      -0.0313
     21 C21        47.6339   47.9693   33.4640 C.ar        1 MOL       0.0551
     22 CL22       48.1514   48.9434   32.1730 Cl          1 MOL      -0.0670
     23 CL23       45.5857   44.5396   33.7815 Cl          1 MOL      -0.0685
     24 C24        55.0273   47.2055   32.8109 C.3         1 MOL       0.0564
     25 C25        56.4723   47.5872   33.2214 C.3         1 MOL       0.0680
     26 O26        56.6829   47.3733   34.6309 O.3         1 MOL      -0.3758
     27 C27        55.7365   48.0723   35.4649 C.3         1 MOL       0.0680
     28 C28        54.2869   47.6691   35.0997 C.3         1 MOL       0.0564
     29 H1         50.3775   47.7000   33.6300 H           1 MOL       0.0902
     30 H2         49.6145   53.2609   37.3477 H           1 MOL       0.0451
     31 H3         48.6898   52.1091   38.3114 H           1 MOL       0.0451
     32 H4         47.9004   53.0342   37.0213 H           1 MOL       0.0451
     33 H5         46.7513   50.7920   37.5490 H           1 MOL       0.0958
     34 H6         46.2513   49.5652   36.4452 H           1 MOL       0.0958
     35 H7         45.0789   51.5828   36.1328 H           1 MOL       0.2006
     36 H8         45.8958   51.0952   34.7679 H           1 MOL       0.2006
     37 H9         46.4634   52.3767   35.6644 H           1 MOL       0.2006
     38 H10        47.5302   47.6518   36.8237 H           1 MOL       0.0642
     39 H11        46.2550   45.7122   36.2399 H           1 MOL       0.0629
     40 H12        46.7857   46.5310   32.1595 H           1 MOL       0.0634
     41 H13        54.9104   47.4398   31.7485 H           1 MOL       0.0544
     42 H14        54.9076   46.1237   32.9153 H           1 MOL       0.0544
     43 H15        56.6711   48.6323   32.9678 H           1 MOL       0.0580
     44 H16        57.1816   46.9661   32.6721 H           1 MOL       0.0580
     45 H17        55.8664   49.1535   35.3587 H           1 MOL       0.0580
     46 H18        55.9353   47.8088   36.5057 H           1 MOL       0.0580
     47 H19        54.1484   46.6100   35.3304 H           1 MOL       0.0544
     48 H20        53.6075   48.2263   35.7453 H           1 MOL       0.0544
@<TRIPOS>BOND
     1     1     2   2
     2     1     5   1
     3     1    14   1
     4     2     3   1
     5     2    15   1
     6     3     4   2
     7     3    13   1
     8     4     6   1
     9     5     6   1
    10     5     9   1
    11     6     7   2
    12     7     8   1
    13     8     9   2
    14     8    10   1
    15    10    11   2
    16    10    12  am
    17    12    24   1
    18    12    28   1
    19    14    17  ar
    20    14    21  ar
    21    15    16   1
    22    17    18  ar
    23    18    19  ar
    24    19    20  ar
    25    19    23   1
    26    20    21  ar
    27    21    22   1
    28    24    25   1
    29    25    26   1
    30    26    27   1
    31    27    28   1
    32     9    29   1
    33    13    30   1
    34    13    31   1
    35    13    32   1
    36    15    33   1
    37    15    34   1
    38    16    35   1
    39    16    36   1
    40    16    37   1
    41    17    38   1
    42    18    39   1
    43    20    40   1
    44    24    41   1
    45    24    42   1
    46    25    43   1
    47    25    44   1
    48    27    45   1
    49    27    46   1
    50    28    47   1
    51    28    48   1
@<TRIPOS>SUBSTRUCTURE
     1  MOL      1

