@<TRIPOS>MOLECULE
3nox_ligand_042
    48    51
SMALL
GAST_HUCK
****
This file was generated by PARSER (from files_GN.cpp)

@<TRIPOS>ATOM
      1 C1         51.0637   50.1587   33.9410 C.2         1 MOL       0.1404
      2 C2         50.6897   49.8091   32.6733 C.2         1 MOL       0.0782
      3 C3         49.3784   49.3509   32.4666 C.2         1 MOL       0.0387
      4 N4         48.4832   49.4060   33.4514 N.2         1 MOL      -0.2660
      5 N5         50.1039   50.2608   34.8983 N.pl3       1 MOL      -0.1859
      6 C6         48.8315   49.8909   34.6613 C.2         1 MOL       0.1941
      7 N7         48.0724   50.0028   35.7598 N.2         1 MOL      -0.3175
      8 C8         48.8461   50.4870   36.7464 C.2         1 MOL       0.0787
      9 C9         50.1198   50.6498   36.1864 C.2         1 MOL       0.0743
     10 C10        48.4972   50.7388   38.0861 C.2         1 MOL       0.1958
     11 O11        48.9731   51.7621   38.5628 O.2         1 MOL      -0.3941
     12 N12        47.8169   49.9347   38.9318 N.am        1 MOL      -0.2710
     13 C13        48.9445   48.6981   31.2331 C.3         1 MOL      -0.0096
     14 C14        52.4020   50.2155   34.3516 C.ar        1 MOL       0.0400
     15 C15        51.5799   50.0320   31.5229 C.3         1 MOL       0.0036
     16 N16        51.2216   51.2799   30.8313 N.4         1 MOL       0.2296
     17 C17        52.9473   51.4238   34.8484 C.ar        1 MOL      -0.0470
     18 C18        54.2748   51.4955   35.2812 C.ar        1 MOL      -0.0451
     19 C19        55.0889   50.3383   35.2515 C.ar        1 MOL       0.0429
     20 C20        54.5650   49.1287   34.7667 C.ar        1 MOL      -0.0313
     21 C21        53.2330   49.0598   34.3035 C.ar        1 MOL       0.0551
     22 CL22       52.6943   47.5468   33.7514 Cl          1 MOL      -0.0670
     23 CL23       56.6855   50.4171   35.7986 Cl          1 MOL      -0.0685
     24 C24        46.9376   48.8491   38.5378 C.3         1 MOL       0.0564
     25 C25        47.5893   47.5035   38.9598 C.3         1 MOL       0.0680
     26 O26        47.9141   47.5028   40.3673 O.3         1 MOL      -0.3758
     27 C27        48.7412   48.6116   40.7597 C.3         1 MOL       0.0680
     28 C28        48.0816   49.9655   40.3737 C.3         1 MOL       0.0564
     29 H1         50.9346   51.0029   36.6971 H           1 MOL       0.0902
     30 H2         47.8768   48.4641   31.2549 H           1 MOL       0.0451
     31 H3         49.4872   47.7540   31.1186 H           1 MOL       0.0451
     32 H4         49.1378   49.3341   30.3607 H           1 MOL       0.0451
     33 H5         51.4970   49.2018   30.8196 H           1 MOL       0.0958
     34 H6         52.6391   50.1234   31.7809 H           1 MOL       0.0958
     35 H7         51.5609   52.0836   31.3754 H           1 MOL       0.2006
     36 H8         50.1986   51.3294   30.7086 H           1 MOL       0.2006
     37 H9         51.6656   51.3114   29.9046 H           1 MOL       0.2006
     38 H10        52.3755   52.2670   34.9012 H           1 MOL       0.0642
     39 H11        54.6392   52.3800   35.6500 H           1 MOL       0.0629
     40 H12        55.1646   48.2947   34.7379 H           1 MOL       0.0634
     41 H13        46.6691   48.8130   37.4820 H           1 MOL       0.0544
     42 H14        45.9761   48.9687   39.0578 H           1 MOL       0.0544
     43 H15        48.4925   47.3201   38.3655 H           1 MOL       0.0580
     44 H16        46.8886   46.6934   38.7931 H           1 MOL       0.0580
     45 H17        49.7175   48.5350   40.2812 H           1 MOL       0.0580
     46 H18        48.8979   48.5659   41.8346 H           1 MOL       0.0580
     47 H19        47.1354   50.0888   40.9214 H           1 MOL       0.0544
     48 H20        48.7554   50.7698   40.7053 H           1 MOL       0.0544
@<TRIPOS>BOND
     1     1     2   2
     2     1     5   1
     3     1    14   1
     4     2     3   1
     5     2    15   1
     6     3     4   2
     7     3    13   1
     8     4     6   1
     9     5     6   1
    10     5     9   1
    11     6     7   2
    12     7     8   1
    13     8     9   2
    14     8    10   1
    15    10    11   2
    16    10    12  am
    17    12    24   1
    18    12    28   1
    19    14    17  ar
    20    14    21  ar
    21    15    16   1
    22    17    18  ar
    23    18    19  ar
    24    19    20  ar
    25    19    23   1
    26    20    21  ar
    27    21    22   1
    28    24    25   1
    29    25    26   1
    30    26    27   1
    31    27    28   1
    32     9    29   1
    33    13    30   1
    34    13    31   1
    35    13    32   1
    36    15    33   1
    37    15    34   1
    38    16    35   1
    39    16    36   1
    40    16    37   1
    41    17    38   1
    42    18    39   1
    43    20    40   1
    44    24    41   1
    45    24    42   1
    46    25    43   1
    47    25    44   1
    48    27    45   1
    49    27    46   1
    50    28    47   1
    51    28    48   1
@<TRIPOS>SUBSTRUCTURE
     1  MOL      1

