@<TRIPOS>MOLECULE
3nox_ligand_064
    48    51
SMALL
GAST_HUCK
****
This file was generated by PARSER (from files_GN.cpp)

@<TRIPOS>ATOM
      1 C1         49.6166   49.2083   32.0897 C.2         1 MOL       0.1404
      2 C2         50.6626   49.9713   31.6384 C.2         1 MOL       0.0782
      3 C3         51.3859   50.7220   32.5833 C.2         1 MOL       0.0387
      4 N4         50.9650   50.8009   33.8410 N.2         1 MOL      -0.2660
      5 N5         49.2232   49.3103   33.3902 N.pl3       1 MOL      -0.1859
      6 C6         49.8738   50.1214   34.2500 C.2         1 MOL       0.1941
      7 N7         49.3268   50.0650   35.4687 N.2         1 MOL      -0.3175
      8 C8         48.3036   49.1881   35.4346 C.2         1 MOL       0.0787
      9 C9         48.2586   48.7186   34.1146 C.2         1 MOL       0.0743
     10 C10        47.4631   48.8117   36.4949 C.2         1 MOL       0.1958
     11 O11        46.5232   48.1004   36.1499 O.2         1 MOL      -0.3941
     12 N12        47.5757   49.1233   37.8123 N.am        1 MOL      -0.2710
     13 C13        52.6715   51.3555   32.3101 C.3         1 MOL      -0.0096
     14 C14        48.9797   48.2549   31.2804 C.ar        1 MOL       0.0400
     15 C15        50.8556   50.2115   30.1994 C.3         1 MOL       0.0036
     16 N16        50.0859   51.4028   29.8202 N.4         1 MOL       0.2296
     17 C17        47.5926   48.3583   31.0106 C.ar        1 MOL      -0.0470
     18 C18        46.9339   47.3906   30.2300 C.ar        1 MOL      -0.0451
     19 C19        47.6552   46.3061   29.6931 C.ar        1 MOL       0.0429
     20 C20        49.0341   46.1925   29.9488 C.ar        1 MOL      -0.0313
     21 C21        49.6958   47.1493   30.7431 C.ar        1 MOL       0.0551
     22 CL22       51.3599   46.9140   31.0050 Cl          1 MOL      -0.0670
     23 CL23       46.8782   45.1425   28.7419 Cl          1 MOL      -0.0685
     24 C24        46.5564   48.6611   38.7521 C.3         1 MOL       0.0564
     25 C25        46.8270   48.8866   40.2623 C.3         1 MOL       0.0680
     26 O26        47.4966   50.1374   40.4792 O.3         1 MOL      -0.3758
     27 C27        48.7788   50.1466   39.8358 C.3         1 MOL       0.0680
     28 C28        48.6444   49.9799   38.2993 C.3         1 MOL       0.0564
     29 H1         47.6004   48.0233   33.7602 H           1 MOL       0.0902
     30 H2         53.1235   51.8006   33.2004 H           1 MOL       0.0451
     31 H3         52.5514   52.1519   31.5735 H           1 MOL       0.0451
     32 H4         53.3728   50.6134   31.9184 H           1 MOL       0.0451
     33 H5         50.5311   49.3781   29.5759 H           1 MOL       0.0958
     34 H6         51.8979   50.3736   29.9354 H           1 MOL       0.0958
     35 H7         50.2164   51.5945   28.8246 H           1 MOL       0.2006
     36 H8         50.4085   52.2034   30.3679 H           1 MOL       0.2006
     37 H9         49.0931   51.2473   30.0066 H           1 MOL       0.2006
     38 H10        47.0470   49.1397   31.3872 H           1 MOL       0.0642
     39 H11        45.9276   47.4716   30.0594 H           1 MOL       0.0629
     40 H12        49.5534   45.4029   29.5571 H           1 MOL       0.0634
     41 H13        46.4105   47.5855   38.6279 H           1 MOL       0.0544
     42 H14        45.6151   49.1604   38.5030 H           1 MOL       0.0544
     43 H15        47.4216   48.0598   40.6673 H           1 MOL       0.0580
     44 H16        45.8818   48.9016   40.8086 H           1 MOL       0.0580
     45 H17        49.4156   49.3548   40.2504 H           1 MOL       0.0580
     46 H18        49.2672   51.0997   40.0594 H           1 MOL       0.0580
     47 H19        48.5052   50.9775   37.8694 H           1 MOL       0.0544
     48 H20        49.6037   49.5846   37.9566 H           1 MOL       0.0544
@<TRIPOS>BOND
     1     1     2   2
     2     1     5   1
     3     1    14   1
     4     2     3   1
     5     2    15   1
     6     3     4   2
     7     3    13   1
     8     4     6   1
     9     5     6   1
    10     5     9   1
    11     6     7   2
    12     7     8   1
    13     8     9   2
    14     8    10   1
    15    10    11   2
    16    10    12  am
    17    12    24   1
    18    12    28   1
    19    14    17  ar
    20    14    21  ar
    21    15    16   1
    22    17    18  ar
    23    18    19  ar
    24    19    20  ar
    25    19    23   1
    26    20    21  ar
    27    21    22   1
    28    24    25   1
    29    25    26   1
    30    26    27   1
    31    27    28   1
    32     9    29   1
    33    13    30   1
    34    13    31   1
    35    13    32   1
    36    15    33   1
    37    15    34   1
    38    16    35   1
    39    16    36   1
    40    16    37   1
    41    17    38   1
    42    18    39   1
    43    20    40   1
    44    24    41   1
    45    24    42   1
    46    25    43   1
    47    25    44   1
    48    27    45   1
    49    27    46   1
    50    28    47   1
    51    28    48   1
@<TRIPOS>SUBSTRUCTURE
     1  MOL      1

