@<TRIPOS>MOLECULE
3nox_ligand_058
    48    51
SMALL
GAST_HUCK
****
This file was generated by PARSER (from files_GN.cpp)

@<TRIPOS>ATOM
      1 C1         48.7388   50.8800   33.4681 C.2         1 MOL       0.1404
      2 C2         50.0212   51.1100   33.0357 C.2         1 MOL       0.0782
      3 C3         51.0724   50.8605   33.9419 C.2         1 MOL       0.0387
      4 N4         50.8157   50.4617   35.1819 N.2         1 MOL      -0.2660
      5 N5         48.5242   50.4447   34.7460 N.pl3       1 MOL      -0.1859
      6 C6         49.5505   50.2609   35.5948 C.2         1 MOL       0.1941
      7 N7         49.1227   49.8451   36.7941 N.2         1 MOL      -0.3175
      8 C8         47.7849   49.7176   36.7370 C.2         1 MOL       0.0787
      9 C9         47.4201   50.1165   35.4449 C.2         1 MOL       0.0743
     10 C10        46.9247   49.3278   37.7723 C.2         1 MOL       0.1958
     11 O11        45.7527   49.6419   37.5850 O.2         1 MOL      -0.3941
     12 N12        47.2393   48.6975   38.9240 N.am        1 MOL      -0.2710
     13 C13        52.4912   50.9050   33.6102 C.3         1 MOL      -0.0096
     14 C14        47.6051   51.0819   32.6700 C.ar        1 MOL       0.0400
     15 C15        50.2978   51.5786   31.6626 C.3         1 MOL       0.0036
     16 N16        50.2331   50.4930   30.6793 N.4         1 MOL       0.2296
     17 C17        46.9936   52.3582   32.6631 C.ar        1 MOL      -0.0470
     18 C18        45.8321   52.5948   31.9054 C.ar        1 MOL      -0.0451
     19 C19        45.2868   51.5684   31.1136 C.ar        1 MOL       0.0429
     20 C20        45.8795   50.2915   31.1212 C.ar        1 MOL      -0.0313
     21 C21        47.0214   50.0365   31.9078 C.ar        1 MOL       0.0551
     22 CL22       47.6367   48.4515   31.9162 Cl          1 MOL      -0.0670
     23 CL23       43.9073   51.8639   30.1832 Cl          1 MOL      -0.0685
     24 C24        46.2964   48.5669   40.0350 C.3         1 MOL       0.0564
     25 C25        46.8916   49.2650   41.2876 C.3         1 MOL       0.0680
     26 O26        48.2323   48.8117   41.5612 O.3         1 MOL      -0.3758
     27 C27        49.1262   48.9198   40.4356 C.3         1 MOL       0.0680
     28 C28        48.5452   48.1390   39.2314 C.3         1 MOL       0.0564
     29 H1         46.4620   50.1433   35.0876 H           1 MOL       0.0902
     30 H2         53.1256   50.5595   34.4309 H           1 MOL       0.0451
     31 H3         52.7956   51.9248   33.3724 H           1 MOL       0.0451
     32 H4         52.6842   50.2589   32.7513 H           1 MOL       0.0451
     33 H5         51.2860   52.0223   31.5671 H           1 MOL       0.0958
     34 H6         49.5976   52.3630   31.3733 H           1 MOL       0.0958
     35 H7         50.5138   50.8535   29.7679 H           1 MOL       0.2006
     36 H8         49.2843   50.1291   30.6149 H           1 MOL       0.2006
     37 H9         50.8682   49.7422   30.9481 H           1 MOL       0.2006
     38 H10        47.3819   53.1239   33.2214 H           1 MOL       0.0642
     39 H11        45.3851   53.5133   31.9370 H           1 MOL       0.0629
     40 H12        45.4685   49.5451   30.5550 H           1 MOL       0.0634
     41 H13        46.1380   47.5079   40.2570 H           1 MOL       0.0544
     42 H14        45.3107   48.9915   39.8436 H           1 MOL       0.0544
     43 H15        46.2653   49.0548   42.1568 H           1 MOL       0.0580
     44 H16        46.9074   50.3448   41.1387 H           1 MOL       0.0580
     45 H17        50.0877   48.5005   40.7223 H           1 MOL       0.0580
     46 H18        49.2849   49.9701   40.1755 H           1 MOL       0.0580
     47 H19        49.2670   48.1425   38.4182 H           1 MOL       0.0544
     48 H20        48.4302   47.0872   39.5108 H           1 MOL       0.0544
@<TRIPOS>BOND
     1     1     2   2
     2     1     5   1
     3     1    14   1
     4     2     3   1
     5     2    15   1
     6     3     4   2
     7     3    13   1
     8     4     6   1
     9     5     6   1
    10     5     9   1
    11     6     7   2
    12     7     8   1
    13     8     9   2
    14     8    10   1
    15    10    11   2
    16    10    12  am
    17    12    24   1
    18    12    28   1
    19    14    17  ar
    20    14    21  ar
    21    15    16   1
    22    17    18  ar
    23    18    19  ar
    24    19    20  ar
    25    19    23   1
    26    20    21  ar
    27    21    22   1
    28    24    25   1
    29    25    26   1
    30    26    27   1
    31    27    28   1
    32     9    29   1
    33    13    30   1
    34    13    31   1
    35    13    32   1
    36    15    33   1
    37    15    34   1
    38    16    35   1
    39    16    36   1
    40    16    37   1
    41    17    38   1
    42    18    39   1
    43    20    40   1
    44    24    41   1
    45    24    42   1
    46    25    43   1
    47    25    44   1
    48    27    45   1
    49    27    46   1
    50    28    47   1
    51    28    48   1
@<TRIPOS>SUBSTRUCTURE
     1  MOL      1

