@<TRIPOS>MOLECULE
3nox_ligand_068
    48    51
SMALL
GAST_HUCK
****
This file was generated by PARSER (from files_GN.cpp)

@<TRIPOS>ATOM
      1 C1         46.9915   49.4831   32.4278 C.2         1 MOL       0.1404
      2 C2         46.2442   48.7193   33.2899 C.2         1 MOL       0.0782
      3 C3         46.7576   47.4582   33.6497 C.2         1 MOL       0.0387
      4 N4         47.8989   47.0176   33.1303 N.2         1 MOL      -0.2660
      5 N5         48.1728   49.0038   31.9409 N.pl3       1 MOL      -0.1859
      6 C6         48.6124   47.7759   32.2731 C.2         1 MOL       0.1941
      7 N7         49.7746   47.4821   31.6656 N.2         1 MOL      -0.3175
      8 C8         50.1017   48.5579   30.9339 C.2         1 MOL       0.0787
      9 C9         49.0972   49.5107   31.0951 C.2         1 MOL       0.0743
     10 C10        51.2214   48.6755   30.1359 C.2         1 MOL       0.1958
     11 O11        51.1037   48.1307   29.0446 O.2         1 MOL      -0.3941
     12 N12        52.3542   49.3260   30.4726 N.am        1 MOL      -0.2710
     13 C13        46.1659   46.5782   34.6474 C.3         1 MOL      -0.0096
     14 C14        46.5578   50.7141   31.9309 C.ar        1 MOL       0.0400
     15 C15        44.9447   49.2050   33.8136 C.3         1 MOL       0.0036
     16 N16        45.1237   50.1520   34.9222 N.4         1 MOL       0.2296
     17 C17        47.0944   51.9048   32.4768 C.ar        1 MOL      -0.0470
     18 C18        46.7099   53.1568   31.9724 C.ar        1 MOL      -0.0451
     19 C19        45.7972   53.2385   30.9052 C.ar        1 MOL       0.0429
     20 C20        45.2664   52.0607   30.3473 C.ar        1 MOL      -0.0313
     21 C21        45.6458   50.7995   30.8444 C.ar        1 MOL       0.0551
     22 CL22       44.9865   49.4286   30.0830 Cl          1 MOL      -0.0670
     23 CL23       45.3461   54.7475   30.2909 Cl          1 MOL      -0.0685
     24 C24        52.6164   49.8242   31.8156 C.3         1 MOL       0.0564
     25 C25        52.9775   51.3292   31.7635 C.3         1 MOL       0.0680
     26 O26        54.0324   51.5792   30.8113 O.3         1 MOL      -0.3758
     27 C27        53.7514   51.0843   29.4847 C.3         1 MOL       0.0680
     28 C28        53.4293   49.5695   29.5202 C.3         1 MOL       0.0564
     29 H1         49.0648   50.4199   30.6266 H           1 MOL       0.0902
     30 H2         46.7768   45.6962   34.8519 H           1 MOL       0.0451
     31 H3         45.1897   46.2297   34.3104 H           1 MOL       0.0451
     32 H4         46.0526   47.1187   35.5863 H           1 MOL       0.0451
     33 H5         44.2954   48.4102   34.1821 H           1 MOL       0.0958
     34 H6         44.3720   49.6998   33.0253 H           1 MOL       0.0958
     35 H7         44.2173   50.5440   35.1933 H           1 MOL       0.2006
     36 H8         45.7412   50.9116   34.6356 H           1 MOL       0.2006
     37 H9         45.5327   49.6623   35.7218 H           1 MOL       0.2006
     38 H10        47.7699   51.8699   33.2471 H           1 MOL       0.0642
     39 H11        47.1001   54.0104   32.3803 H           1 MOL       0.0629
     40 H12        44.6034   52.1253   29.5687 H           1 MOL       0.0634
     41 H13        53.4668   49.2729   32.2318 H           1 MOL       0.0544
     42 H14        51.7867   49.6963   32.5127 H           1 MOL       0.0544
     43 H15        53.3285   51.6477   32.7474 H           1 MOL       0.0580
     44 H16        52.0896   51.9204   31.5118 H           1 MOL       0.0580
     45 H17        54.6336   51.2555   28.8654 H           1 MOL       0.0580
     46 H18        52.9180   51.6453   29.0454 H           1 MOL       0.0580
     47 H19        53.2024   49.2426   28.5023 H           1 MOL       0.0544
     48 H20        54.3225   49.0235   29.8406 H           1 MOL       0.0544
@<TRIPOS>BOND
     1     1     2   2
     2     1     5   1
     3     1    14   1
     4     2     3   1
     5     2    15   1
     6     3     4   2
     7     3    13   1
     8     4     6   1
     9     5     6   1
    10     5     9   1
    11     6     7   2
    12     7     8   1
    13     8     9   2
    14     8    10   1
    15    10    11   2
    16    10    12  am
    17    12    24   1
    18    12    28   1
    19    14    17  ar
    20    14    21  ar
    21    15    16   1
    22    17    18  ar
    23    18    19  ar
    24    19    20  ar
    25    19    23   1
    26    20    21  ar
    27    21    22   1
    28    24    25   1
    29    25    26   1
    30    26    27   1
    31    27    28   1
    32     9    29   1
    33    13    30   1
    34    13    31   1
    35    13    32   1
    36    15    33   1
    37    15    34   1
    38    16    35   1
    39    16    36   1
    40    16    37   1
    41    17    38   1
    42    18    39   1
    43    20    40   1
    44    24    41   1
    45    24    42   1
    46    25    43   1
    47    25    44   1
    48    27    45   1
    49    27    46   1
    50    28    47   1
    51    28    48   1
@<TRIPOS>SUBSTRUCTURE
     1  MOL      1

