@<TRIPOS>MOLECULE
3nox_ligand_002
    48    51
SMALL
GAST_HUCK
****
This file was generated by PARSER (from files_GN.cpp)

@<TRIPOS>ATOM
      1 C1         48.4166   50.7341   33.7827 C.2         1 MOL       0.1404
      2 C2         47.6079   50.1997   34.7565 C.2         1 MOL       0.0782
      3 C3         48.2249   49.6031   35.8724 C.2         1 MOL       0.0387
      4 N4         49.5451   49.6365   36.0102 N.2         1 MOL      -0.2660
      5 N5         49.7679   50.7188   33.9560 N.pl3       1 MOL      -0.1859
      6 C6         50.3252   50.2111   35.0689 C.2         1 MOL       0.1941
      7 N7         51.6597   50.3476   35.0618 N.2         1 MOL      -0.3175
      8 C8         51.9769   50.9624   33.9130 C.2         1 MOL       0.0787
      9 C9         50.7935   51.1669   33.2056 C.2         1 MOL       0.0743
     10 C10        53.2513   51.2993   33.4958 C.2         1 MOL       0.1958
     11 O11        53.5006   50.9566   32.3456 O.2         1 MOL      -0.3941
     12 N12        54.1424   52.0215   34.2056 N.am        1 MOL      -0.2710
     13 C13        47.5211   48.8540   36.9076 C.3         1 MOL      -0.0096
     14 C14        47.9337   51.4106   32.6558 C.ar        1 MOL       0.0400
     15 C15        46.1425   50.3289   34.7031 C.3         1 MOL       0.0036
     16 N16        45.6887   51.4716   35.5028 N.4         1 MOL       0.2296
     17 C17        47.5170   52.7535   32.7915 C.ar        1 MOL      -0.0470
     18 C18        47.0855   53.4926   31.6797 C.ar        1 MOL      -0.0451
     19 C19        47.0717   52.8982   30.4058 C.ar        1 MOL       0.0429
     20 C20        47.4889   51.5649   30.2517 C.ar        1 MOL      -0.0313
     21 C21        47.9221   50.8151   31.3639 C.ar        1 MOL       0.0551
     22 CL22       48.4286   49.2162   31.1000 Cl          1 MOL      -0.0670
     23 CL23       46.5628   53.7923   29.0603 Cl          1 MOL      -0.0685
     24 C24        53.8663   52.6225   35.4996 C.3         1 MOL       0.0564
     25 C25        54.0159   54.1636   35.4080 C.3         1 MOL       0.0680
     26 O26        55.2722   54.5396   34.8055 O.3         1 MOL      -0.3758
     27 C27        55.5178   53.9153   33.5277 C.3         1 MOL       0.0680
     28 C28        55.4408   52.3764   33.6547 C.3         1 MOL       0.0564
     29 H1         50.7150   51.6154   32.2903 H           1 MOL       0.0902
     30 H2         48.2018   48.4823   37.6818 H           1 MOL       0.0451
     31 H3         47.0221   47.9887   36.4637 H           1 MOL       0.0451
     32 H4         46.7795   49.4923   37.3925 H           1 MOL       0.0451
     33 H5         45.6464   49.4291   35.0759 H           1 MOL       0.0958
     34 H6         45.7695   50.4563   33.6863 H           1 MOL       0.0958
     35 H7         44.6846   51.5934   35.3704 H           1 MOL       0.2006
     36 H8         46.1690   52.3292   35.2108 H           1 MOL       0.2006
     37 H9         45.8764   51.3117   36.4928 H           1 MOL       0.2006
     38 H10        47.5424   53.2147   33.7040 H           1 MOL       0.0642
     39 H11        46.7946   54.4643   31.8013 H           1 MOL       0.0629
     40 H12        47.4833   51.1359   29.3225 H           1 MOL       0.0634
     41 H13        54.5759   52.2341   36.2350 H           1 MOL       0.0544
     42 H14        52.8708   52.4220   35.8932 H           1 MOL       0.0544
     43 H15        53.9794   54.5926   36.4114 H           1 MOL       0.0580
     44 H16        53.1866   54.5783   34.8289 H           1 MOL       0.0580
     45 H17        56.5141   54.2113   33.1862 H           1 MOL       0.0580
     46 H18        54.7889   54.2653   32.7911 H           1 MOL       0.0580
     47 H19        55.6580   51.9367   32.6765 H           1 MOL       0.0544
     48 H20        56.2279   52.0324   34.3311 H           1 MOL       0.0544
@<TRIPOS>BOND
     1     1     2   2
     2     1     5   1
     3     1    14   1
     4     2     3   1
     5     2    15   1
     6     3     4   2
     7     3    13   1
     8     4     6   1
     9     5     6   1
    10     5     9   1
    11     6     7   2
    12     7     8   1
    13     8     9   2
    14     8    10   1
    15    10    11   2
    16    10    12  am
    17    12    24   1
    18    12    28   1
    19    14    17  ar
    20    14    21  ar
    21    15    16   1
    22    17    18  ar
    23    18    19  ar
    24    19    20  ar
    25    19    23   1
    26    20    21  ar
    27    21    22   1
    28    24    25   1
    29    25    26   1
    30    26    27   1
    31    27    28   1
    32     9    29   1
    33    13    30   1
    34    13    31   1
    35    13    32   1
    36    15    33   1
    37    15    34   1
    38    16    35   1
    39    16    36   1
    40    16    37   1
    41    17    38   1
    42    18    39   1
    43    20    40   1
    44    24    41   1
    45    24    42   1
    46    25    43   1
    47    25    44   1
    48    27    45   1
    49    27    46   1
    50    28    47   1
    51    28    48   1
@<TRIPOS>SUBSTRUCTURE
     1  MOL      1

