@<TRIPOS>MOLECULE
3nox_ligand_069
    48    51
SMALL
GAST_HUCK
****
This file was generated by PARSER (from files_GN.cpp)

@<TRIPOS>ATOM
      1 C1         46.7039   50.5785   30.8113 C.2         1 MOL       0.1404
      2 C2         47.7617   51.3915   31.1159 C.2         1 MOL       0.0782
      3 C3         48.9885   51.1253   30.4790 C.2         1 MOL       0.0387
      4 N4         49.1074   50.1040   29.6382 N.2         1 MOL      -0.2660
      5 N5         46.8559   49.5739   29.9102 N.pl3       1 MOL      -0.1859
      6 C6         48.0518   49.3167   29.3478 C.2         1 MOL       0.1941
      7 N7         47.9959   48.2534   28.5315 N.2         1 MOL      -0.3175
      8 C8         46.7197   47.8378   28.5334 C.2         1 MOL       0.0787
      9 C9         46.0027   48.6660   29.3962 C.2         1 MOL       0.0743
     10 C10        46.2381   46.7250   27.8642 C.2         1 MOL       0.1958
     11 O11        46.9463   45.7338   27.9971 O.2         1 MOL      -0.3941
     12 N12        45.1040   46.6722   27.1372 N.am        1 MOL      -0.2710
     13 C13        50.2056   51.9052   30.6662 C.3         1 MOL      -0.0096
     14 C14        45.4644   50.6831   31.4301 C.ar        1 MOL       0.0400
     15 C15        47.6392   52.4563   32.1348 C.3         1 MOL       0.0036
     16 N16        47.8349   51.9349   33.4953 N.4         1 MOL       0.2296
     17 C17        44.6730   51.8349   31.1998 C.ar        1 MOL      -0.0470
     18 C18        43.4102   51.9547   31.7859 C.ar        1 MOL      -0.0451
     19 C19        42.9055   50.9204   32.5975 C.ar        1 MOL       0.0429
     20 C20        43.6873   49.7699   32.8366 C.ar        1 MOL      -0.0313
     21 C21        44.9630   49.6464   32.2639 C.ar        1 MOL       0.0551
     22 CL22       45.8418   48.2284   32.5926 Cl          1 MOL      -0.0670
     23 CL23       41.3484   51.0408   33.2458 Cl          1 MOL      -0.0685
     24 C24        44.5294   45.4041   26.7103 C.3         1 MOL       0.0564
     25 C25        44.4915   45.3481   25.1643 C.3         1 MOL       0.0680
     26 O26        43.8131   46.5050   24.6318 O.3         1 MOL      -0.3758
     27 C27        44.3953   47.7530   25.0537 C.3         1 MOL       0.0680
     28 C28        44.4394   47.8510   26.6001 C.3         1 MOL       0.0564
     29 H1         45.0098   48.5700   29.6244 H           1 MOL       0.0902
     30 H2         51.0479   51.5071   30.0929 H           1 MOL       0.0451
     31 H3         50.4872   51.8973   31.7218 H           1 MOL       0.0451
     32 H4         50.0430   52.9364   30.3401 H           1 MOL       0.0451
     33 H5         46.6635   52.9481   32.0790 H           1 MOL       0.0958
     34 H6         48.3709   53.2504   31.9927 H           1 MOL       0.0958
     35 H7         47.7051   52.6920   34.1733 H           1 MOL       0.2006
     36 H8         48.7863   51.5665   33.5811 H           1 MOL       0.2006
     37 H9         47.1654   51.1886   33.6978 H           1 MOL       0.2006
     38 H10        45.0095   52.5870   30.5881 H           1 MOL       0.0642
     39 H11        42.8536   52.8011   31.6214 H           1 MOL       0.0629
     40 H12        43.3192   49.0236   33.4321 H           1 MOL       0.0634
     41 H13        43.5070   45.3335   27.0980 H           1 MOL       0.0544
     42 H14        45.0639   44.5270   27.0798 H           1 MOL       0.0544
     43 H15        43.9520   44.4543   24.8432 H           1 MOL       0.0580
     44 H16        45.5084   45.2911   24.7709 H           1 MOL       0.0580
     45 H17        43.7967   48.5684   24.6522 H           1 MOL       0.0580
     46 H18        45.4078   47.8455   24.6459 H           1 MOL       0.0580
     47 H19        44.9381   48.7921   26.8482 H           1 MOL       0.0544
     48 H20        43.4249   47.9045   26.9958 H           1 MOL       0.0544
@<TRIPOS>BOND
     1     1     2   2
     2     1     5   1
     3     1    14   1
     4     2     3   1
     5     2    15   1
     6     3     4   2
     7     3    13   1
     8     4     6   1
     9     5     6   1
    10     5     9   1
    11     6     7   2
    12     7     8   1
    13     8     9   2
    14     8    10   1
    15    10    11   2
    16    10    12  am
    17    12    24   1
    18    12    28   1
    19    14    17  ar
    20    14    21  ar
    21    15    16   1
    22    17    18  ar
    23    18    19  ar
    24    19    20  ar
    25    19    23   1
    26    20    21  ar
    27    21    22   1
    28    24    25   1
    29    25    26   1
    30    26    27   1
    31    27    28   1
    32     9    29   1
    33    13    30   1
    34    13    31   1
    35    13    32   1
    36    15    33   1
    37    15    34   1
    38    16    35   1
    39    16    36   1
    40    16    37   1
    41    17    38   1
    42    18    39   1
    43    20    40   1
    44    24    41   1
    45    24    42   1
    46    25    43   1
    47    25    44   1
    48    27    45   1
    49    27    46   1
    50    28    47   1
    51    28    48   1
@<TRIPOS>SUBSTRUCTURE
     1  MOL      1

