@<TRIPOS>MOLECULE
3nox_ligand_001
    48    51
SMALL
GAST_HUCK
****
This file was generated by PARSER (from files_GN.cpp)

@<TRIPOS>ATOM
      1 C1         48.5948   50.5984   34.3709 C.2         1 MOL       0.1404
      2 C2         47.6595   50.1735   35.2833 C.2         1 MOL       0.0782
      3 C3         48.1111   49.4991   36.4324 C.2         1 MOL       0.0387
      4 N4         49.4048   49.3123   36.6368 N.2         1 MOL      -0.2660
      5 N5         49.9218   50.4178   34.6534 N.pl3       1 MOL      -0.1859
      6 C6         50.3196   49.7774   35.7638 C.2         1 MOL       0.1941
      7 N7         51.6542   49.6691   35.8215 N.2         1 MOL      -0.3175
      8 C8         52.1518   50.2468   34.7128 C.2         1 MOL       0.0787
      9 C9         51.0575   50.7692   34.0174 C.2         1 MOL       0.0743
     10 C10        53.4958   50.3509   34.3509 C.2         1 MOL       0.1958
     11 O11        53.7610   51.3550   33.6984 O.2         1 MOL      -0.3941
     12 N12        54.4862   49.4685   34.6201 N.am        1 MOL      -0.2710
     13 C13        47.2512   48.8691   37.4353 C.3         1 MOL      -0.0096
     14 C14        48.2727   51.1727   33.1263 C.ar        1 MOL       0.0400
     15 C15        46.2162   50.4352   35.1224 C.3         1 MOL       0.0036
     16 N16        45.8026   51.5854   35.9359 N.4         1 MOL       0.2296
     17 C17        47.7779   52.4949   33.0753 C.ar        1 MOL      -0.0470
     18 C18        47.4725   53.1080   31.8442 C.ar        1 MOL      -0.0451
     19 C19        47.6901   52.4207   30.6430 C.ar        1 MOL       0.0429
     20 C20        48.2098   51.1158   30.6671 C.ar        1 MOL      -0.0313
     21 C21        48.4921   50.4831   31.8997 C.ar        1 MOL       0.0551
     22 CL22       49.0667   48.8862   31.8356 Cl          1 MOL      -0.0670
     23 CL23       47.3164   53.1661   29.1675 Cl          1 MOL      -0.0685
     24 C24        54.2871   48.1259   35.1560 C.3         1 MOL       0.0564
     25 C25        55.1399   47.9459   36.4364 C.3         1 MOL       0.0680
     26 O26        56.5225   48.2356   36.1587 O.3         1 MOL      -0.3758
     27 C27        56.7525   49.5411   35.5933 C.3         1 MOL       0.0680
     28 C28        55.8873   49.7644   34.3298 C.3         1 MOL       0.0564
     29 H1         51.1088   51.2879   33.1338 H           1 MOL       0.0902
     30 H2         47.8211   48.4162   38.2530 H           1 MOL       0.0451
     31 H3         46.6617   48.0762   36.9734 H           1 MOL       0.0451
     32 H4         46.5754   49.6042   37.8793 H           1 MOL       0.0451
     33 H5         45.6250   49.5714   35.4192 H           1 MOL       0.0958
     34 H6         45.9190   50.6354   34.0904 H           1 MOL       0.0958
     35 H7         44.7849   51.6775   35.9015 H           1 MOL       0.2006
     36 H8         46.2225   52.4433   35.5665 H           1 MOL       0.2006
     37 H9         46.0883   51.4721   36.9125 H           1 MOL       0.2006
     38 H10        47.6343   53.0274   33.9333 H           1 MOL       0.0642
     39 H11        47.1036   54.0633   31.8355 H           1 MOL       0.0629
     40 H12        48.3795   50.6187   29.7890 H           1 MOL       0.0634
     41 H13        54.6320   47.4027   34.4131 H           1 MOL       0.0544
     42 H14        53.2594   47.8597   35.3693 H           1 MOL       0.0544
     43 H15        55.0657   46.9128   36.7876 H           1 MOL       0.0580
     44 H16        54.7702   48.5954   37.2332 H           1 MOL       0.0580
     45 H17        57.8047   49.6180   35.3263 H           1 MOL       0.0580
     46 H18        56.5378   50.3129   36.3367 H           1 MOL       0.0580
     47 H19        56.0636   50.7883   33.9833 H           1 MOL       0.0544
     48 H20        56.2342   49.0992   33.5369 H           1 MOL       0.0544
@<TRIPOS>BOND
     1     1     2   2
     2     1     5   1
     3     1    14   1
     4     2     3   1
     5     2    15   1
     6     3     4   2
     7     3    13   1
     8     4     6   1
     9     5     6   1
    10     5     9   1
    11     6     7   2
    12     7     8   1
    13     8     9   2
    14     8    10   1
    15    10    11   2
    16    10    12  am
    17    12    24   1
    18    12    28   1
    19    14    17  ar
    20    14    21  ar
    21    15    16   1
    22    17    18  ar
    23    18    19  ar
    24    19    20  ar
    25    19    23   1
    26    20    21  ar
    27    21    22   1
    28    24    25   1
    29    25    26   1
    30    26    27   1
    31    27    28   1
    32     9    29   1
    33    13    30   1
    34    13    31   1
    35    13    32   1
    36    15    33   1
    37    15    34   1
    38    16    35   1
    39    16    36   1
    40    16    37   1
    41    17    38   1
    42    18    39   1
    43    20    40   1
    44    24    41   1
    45    24    42   1
    46    25    43   1
    47    25    44   1
    48    27    45   1
    49    27    46   1
    50    28    47   1
    51    28    48   1
@<TRIPOS>SUBSTRUCTURE
     1  MOL      1

