@<TRIPOS>MOLECULE
3nox_ligand_006
    48    51
SMALL
GAST_HUCK
****
This file was generated by PARSER (from files_GN.cpp)

@<TRIPOS>ATOM
      1 C1         56.6436   53.6102   34.2771 C.2         1 MOL       0.1404
      2 C2         57.9601   53.3327   34.0170 C.2         1 MOL       0.0782
      3 C3         58.8082   54.4117   33.7090 C.2         1 MOL       0.0387
      4 N4         58.3293   55.6502   33.6496 N.2         1 MOL      -0.2660
      5 N5         56.1975   54.8949   34.2039 N.pl3       1 MOL      -0.1859
      6 C6         57.0279   55.9054   33.8911 C.2         1 MOL       0.1941
      7 N7         56.3871   57.0837   33.8887 N.2         1 MOL      -0.3175
      8 C8         55.1074   56.8386   34.2300 C.2         1 MOL       0.0787
      9 C9         54.9871   55.4565   34.3931 C.2         1 MOL       0.0743
     10 C10        54.1115   57.8069   34.3110 C.2         1 MOL       0.1958
     11 O11        54.2451   58.7256   33.5107 O.2         1 MOL      -0.3941
     12 N12        53.0665   57.8243   35.1633 N.am        1 MOL      -0.2710
     13 C13        60.2383   54.2950   33.4514 C.3         1 MOL      -0.0096
     14 C14        55.7079   52.6294   34.6132 C.ar        1 MOL       0.0400
     15 C15        58.4937   51.9591   34.1139 C.3         1 MOL       0.0036
     16 N16        58.9229   51.6650   35.4863 N.4         1 MOL       0.2296
     17 C17        55.4658   52.3497   35.9787 C.ar        1 MOL      -0.0470
     18 C18        54.5111   51.3871   36.3518 C.ar        1 MOL      -0.0451
     19 C19        53.7865   50.6931   35.3653 C.ar        1 MOL       0.0429
     20 C20        54.0122   50.9723   34.0044 C.ar        1 MOL      -0.0313
     21 C21        54.9629   51.9398   33.6206 C.ar        1 MOL       0.0551
     22 CL22       55.1671   52.2333   31.9592 Cl          1 MOL      -0.0670
     23 CL23       52.6422   49.5287   35.8116 Cl          1 MOL      -0.0685
     24 C24        52.9958   57.0361   36.3831 C.3         1 MOL       0.0564
     25 C25        51.7044   56.1796   36.3635 C.3         1 MOL       0.0680
     26 O26        50.5519   57.0245   36.1781 O.3         1 MOL      -0.3758
     27 C27        50.6169   57.8382   34.9906 C.3         1 MOL       0.0680
     28 C28        51.9129   58.6909   34.9558 C.3         1 MOL       0.0564
     29 H1         54.1234   54.9537   34.6052 H           1 MOL       0.0902
     30 H2         60.7157   55.2670   33.2979 H           1 MOL       0.0451
     31 H3         60.4079   53.7012   32.5517 H           1 MOL       0.0451
     32 H4         60.7330   53.8154   34.2981 H           1 MOL       0.0451
     33 H5         59.3430   51.7969   33.4509 H           1 MOL       0.0958
     34 H6         57.7562   51.2110   33.8188 H           1 MOL       0.0958
     35 H7         59.2787   50.7077   35.5330 H           1 MOL       0.2006
     36 H8         58.1308   51.7578   36.1244 H           1 MOL       0.2006
     37 H9         59.6618   52.3143   35.7630 H           1 MOL       0.2006
     38 H10        55.9804   52.8458   36.7123 H           1 MOL       0.0642
     39 H11        54.3464   51.1972   37.3435 H           1 MOL       0.0629
     40 H12        53.4794   50.4694   33.2907 H           1 MOL       0.0634
     41 H13        52.9512   57.7175   37.2389 H           1 MOL       0.0544
     42 H14        53.8549   56.3910   36.5614 H           1 MOL       0.0544
     43 H15        51.5883   55.6571   37.3145 H           1 MOL       0.0580
     44 H16        51.7553   55.4296   35.5685 H           1 MOL       0.0580
     45 H17        49.7466   58.4970   34.9811 H           1 MOL       0.0580
     46 H18        50.5700   57.1948   34.1071 H           1 MOL       0.0580
     47 H19        51.9287   59.2295   34.0047 H           1 MOL       0.0544
     48 H20        51.8736   59.4394   35.7528 H           1 MOL       0.0544
@<TRIPOS>BOND
     1     1     2   2
     2     1     5   1
     3     1    14   1
     4     2     3   1
     5     2    15   1
     6     3     4   2
     7     3    13   1
     8     4     6   1
     9     5     6   1
    10     5     9   1
    11     6     7   2
    12     7     8   1
    13     8     9   2
    14     8    10   1
    15    10    11   2
    16    10    12  am
    17    12    24   1
    18    12    28   1
    19    14    17  ar
    20    14    21  ar
    21    15    16   1
    22    17    18  ar
    23    18    19  ar
    24    19    20  ar
    25    19    23   1
    26    20    21  ar
    27    21    22   1
    28    24    25   1
    29    25    26   1
    30    26    27   1
    31    27    28   1
    32     9    29   1
    33    13    30   1
    34    13    31   1
    35    13    32   1
    36    15    33   1
    37    15    34   1
    38    16    35   1
    39    16    36   1
    40    16    37   1
    41    17    38   1
    42    18    39   1
    43    20    40   1
    44    24    41   1
    45    24    42   1
    46    25    43   1
    47    25    44   1
    48    27    45   1
    49    27    46   1
    50    28    47   1
    51    28    48   1
@<TRIPOS>SUBSTRUCTURE
     1  MOL      1

