@<TRIPOS>MOLECULE
3nox_ligand_061
    48    51
SMALL
GAST_HUCK
****
This file was generated by PARSER (from files_GN.cpp)

@<TRIPOS>ATOM
      1 C1         47.2812   48.1421   32.4427 C.2         1 MOL       0.1404
      2 C2         46.5943   48.9459   33.3063 C.2         1 MOL       0.0782
      3 C3         45.2483   49.2346   32.9977 C.2         1 MOL       0.0387
      4 N4         44.6967   48.7768   31.8824 N.2         1 MOL      -0.2660
      5 N5         46.6808   47.7155   31.2902 N.pl3       1 MOL      -0.1859
      6 C6         45.4015   48.0266   31.0157 C.2         1 MOL       0.1941
      7 N7         45.0265   47.5536   29.8176 N.2         1 MOL      -0.3175
      8 C8         46.0888   46.9361   29.2788 C.2         1 MOL       0.0787
      9 C9         47.1152   47.0082   30.2275 C.2         1 MOL       0.0743
     10 C10        46.1710   46.3208   28.0248 C.2         1 MOL       0.1958
     11 O11        47.0594   45.4902   27.9551 O.2         1 MOL      -0.3941
     12 N12        45.4399   46.6054   26.9154 N.am        1 MOL      -0.2710
     13 C13        44.3633   50.0565   33.8140 C.3         1 MOL      -0.0096
     14 C14        48.6008   47.7236   32.6569 C.ar        1 MOL       0.0400
     15 C15        47.1804   49.4482   34.5731 C.3         1 MOL       0.0036
     16 N16        47.2317   48.4028   35.6025 N.4         1 MOL       0.2296
     17 C17        49.6191   48.7040   32.7330 C.ar        1 MOL      -0.0470
     18 C18        50.9619   48.3338   32.9222 C.ar        1 MOL      -0.0451
     19 C19        51.3150   46.9741   32.9863 C.ar        1 MOL       0.0429
     20 C20        50.3192   45.9874   32.8650 C.ar        1 MOL      -0.0313
     21 C21        48.9659   46.3514   32.7024 C.ar        1 MOL       0.0551
     22 CL22       47.8341   45.0891   32.5666 Cl          1 MOL      -0.0670
     23 CL23       52.9331   46.5248   33.2001 Cl          1 MOL      -0.0685
     24 C24        45.6257   45.8550   25.6743 C.3         1 MOL       0.0564
     25 C25        44.2591   45.3594   25.1355 C.3         1 MOL       0.0680
     26 O26        43.2999   46.4330   25.0605 O.3         1 MOL      -0.3758
     27 C27        43.1354   47.1463   26.3010 C.3         1 MOL       0.0680
     28 C28        44.4935   47.7026   26.7868 C.3         1 MOL       0.0564
     29 H1         48.0584   46.6288   30.1125 H           1 MOL       0.0902
     30 H2         43.3323   50.0510   33.4456 H           1 MOL       0.0451
     31 H3         44.7124   51.0913   33.8113 H           1 MOL       0.0451
     32 H4         44.3442   49.6869   34.8380 H           1 MOL       0.0451
     33 H5         46.6164   50.2913   34.9791 H           1 MOL       0.0958
     34 H6         48.1972   49.8215   34.4502 H           1 MOL       0.0958
     35 H7         47.5330   48.8277   36.4831 H           1 MOL       0.2006
     36 H8         47.9053   47.6791   35.3400 H           1 MOL       0.2006
     37 H9         46.3102   47.9810   35.7326 H           1 MOL       0.2006
     38 H10        49.3931   49.7005   32.6622 H           1 MOL       0.0642
     39 H11        51.6790   49.0588   33.0099 H           1 MOL       0.0629
     40 H12        50.5842   44.9973   32.8914 H           1 MOL       0.0634
     41 H13        46.2771   44.9816   25.7636 H           1 MOL       0.0544
     42 H14        46.0859   46.5111   24.9314 H           1 MOL       0.0544
     43 H15        43.8742   44.5606   25.7752 H           1 MOL       0.0580
     44 H16        44.3953   44.9524   24.1321 H           1 MOL       0.0580
     45 H17        42.7120   46.4874   27.0599 H           1 MOL       0.0580
     46 H18        42.4406   47.9714   26.1419 H           1 MOL       0.0580
     47 H19        44.8758   48.3988   26.0319 H           1 MOL       0.0544
     48 H20        44.3151   48.2863   27.6863 H           1 MOL       0.0544
@<TRIPOS>BOND
     1     1     2   2
     2     1     5   1
     3     1    14   1
     4     2     3   1
     5     2    15   1
     6     3     4   2
     7     3    13   1
     8     4     6   1
     9     5     6   1
    10     5     9   1
    11     6     7   2
    12     7     8   1
    13     8     9   2
    14     8    10   1
    15    10    11   2
    16    10    12  am
    17    12    24   1
    18    12    28   1
    19    14    17  ar
    20    14    21  ar
    21    15    16   1
    22    17    18  ar
    23    18    19  ar
    24    19    20  ar
    25    19    23   1
    26    20    21  ar
    27    21    22   1
    28    24    25   1
    29    25    26   1
    30    26    27   1
    31    27    28   1
    32     9    29   1
    33    13    30   1
    34    13    31   1
    35    13    32   1
    36    15    33   1
    37    15    34   1
    38    16    35   1
    39    16    36   1
    40    16    37   1
    41    17    38   1
    42    18    39   1
    43    20    40   1
    44    24    41   1
    45    24    42   1
    46    25    43   1
    47    25    44   1
    48    27    45   1
    49    27    46   1
    50    28    47   1
    51    28    48   1
@<TRIPOS>SUBSTRUCTURE
     1  MOL      1

