@<TRIPOS>MOLECULE
3nox_ligand_008
    48    51
SMALL
GAST_HUCK
****
This file was generated by PARSER (from files_GN.cpp)

@<TRIPOS>ATOM
      1 C1         48.2055   50.9750   34.8975 C.2         1 MOL       0.1404
      2 C2         47.2703   51.7342   34.2441 C.2         1 MOL       0.0782
      3 C3         47.6381   52.3112   33.0153 C.2         1 MOL       0.0387
      4 N4         48.8390   52.0811   32.4951 N.2         1 MOL      -0.2660
      5 N5         49.4439   50.8152   34.3517 N.pl3       1 MOL      -0.1859
      6 C6         49.7475   51.3342   33.1479 C.2         1 MOL       0.1941
      7 N7         50.9907   50.9974   32.7656 N.2         1 MOL      -0.3175
      8 C8         51.5169   50.2547   33.7535 C.2         1 MOL       0.0787
      9 C9         50.5522   50.1597   34.7597 C.2         1 MOL       0.0743
     10 C10        52.7991   49.7271   33.7668 C.2         1 MOL       0.1958
     11 O11        53.3648   49.7976   34.8536 O.2         1 MOL      -0.3941
     12 N12        53.4438   49.1883   32.7094 N.am        1 MOL      -0.2710
     13 C13        46.7853   53.1801   32.2178 C.3         1 MOL      -0.0096
     14 C14        47.9208   50.2393   36.0504 C.ar        1 MOL       0.0400
     15 C15        45.8972   51.8721   34.7673 C.3         1 MOL       0.0036
     16 N16        45.0939   50.6887   34.4406 N.4         1 MOL       0.2296
     17 C17        48.0279   50.8609   37.3160 C.ar        1 MOL      -0.0470
     18 C18        47.7634   50.1392   38.4928 C.ar        1 MOL      -0.0451
     19 C19        47.3931   48.7811   38.4220 C.ar        1 MOL       0.0429
     20 C20        47.2863   48.1533   37.1656 C.ar        1 MOL      -0.0313
     21 C21        47.5536   48.8687   35.9829 C.ar        1 MOL       0.0551
     22 CL22       47.4097   48.0326   34.5097 Cl          1 MOL      -0.0670
     23 CL23       47.0760   47.9110   39.8362 Cl          1 MOL      -0.0685
     24 C24        52.7737   48.7097   31.5123 C.3         1 MOL       0.0564
     25 C25        53.4164   49.3502   30.2575 C.3         1 MOL       0.0680
     26 O26        54.8402   49.1216   30.2500 O.3         1 MOL      -0.3758
     27 C27        55.5090   49.5903   31.4375 C.3         1 MOL       0.0680
     28 C28        54.8846   48.9715   32.7168 C.3         1 MOL       0.0564
     29 H1         50.6662   49.6513   35.6403 H           1 MOL       0.0902
     30 H2         47.2522   53.4871   31.2768 H           1 MOL       0.0451
     31 H3         46.5608   54.0880   32.7822 H           1 MOL       0.0451
     32 H4         45.8540   52.6635   31.9726 H           1 MOL       0.0451
     33 H5         45.3664   52.7431   34.3751 H           1 MOL       0.0958
     34 H6         45.8933   51.9981   35.8493 H           1 MOL       0.0958
     35 H7         44.1273   50.8442   34.7400 H           1 MOL       0.2006
     36 H8         45.4673   49.8729   34.9245 H           1 MOL       0.2006
     37 H9         45.1074   50.5239   33.4279 H           1 MOL       0.2006
     38 H10        48.2974   51.8481   37.3930 H           1 MOL       0.0642
     39 H11        47.8402   50.6027   39.4034 H           1 MOL       0.0629
     40 H12        47.0137   47.1666   37.1166 H           1 MOL       0.0634
     41 H13        51.6978   48.8867   31.4920 H           1 MOL       0.0544
     42 H14        52.9038   47.6231   31.4600 H           1 MOL       0.0544
     43 H15        53.2023   50.4214   30.2303 H           1 MOL       0.0580
     44 H16        52.9920   48.8939   29.3639 H           1 MOL       0.0580
     45 H17        55.4623   50.6826   31.4818 H           1 MOL       0.0580
     46 H18        56.5590   49.3000   31.3741 H           1 MOL       0.0580
     47 H19        55.0827   47.8949   32.7303 H           1 MOL       0.0544
     48 H20        55.3960   49.4068   33.5801 H           1 MOL       0.0544
@<TRIPOS>BOND
     1     1     2   2
     2     1     5   1
     3     1    14   1
     4     2     3   1
     5     2    15   1
     6     3     4   2
     7     3    13   1
     8     4     6   1
     9     5     6   1
    10     5     9   1
    11     6     7   2
    12     7     8   1
    13     8     9   2
    14     8    10   1
    15    10    11   2
    16    10    12  am
    17    12    24   1
    18    12    28   1
    19    14    17  ar
    20    14    21  ar
    21    15    16   1
    22    17    18  ar
    23    18    19  ar
    24    19    20  ar
    25    19    23   1
    26    20    21  ar
    27    21    22   1
    28    24    25   1
    29    25    26   1
    30    26    27   1
    31    27    28   1
    32     9    29   1
    33    13    30   1
    34    13    31   1
    35    13    32   1
    36    15    33   1
    37    15    34   1
    38    16    35   1
    39    16    36   1
    40    16    37   1
    41    17    38   1
    42    18    39   1
    43    20    40   1
    44    24    41   1
    45    24    42   1
    46    25    43   1
    47    25    44   1
    48    27    45   1
    49    27    46   1
    50    28    47   1
    51    28    48   1
@<TRIPOS>SUBSTRUCTURE
     1  MOL      1

