@<TRIPOS>MOLECULE
3nox_ligand_031
    48    51
SMALL
GAST_HUCK
****
This file was generated by PARSER (from files_GN.cpp)

@<TRIPOS>ATOM
      1 C1         47.7237   49.9319   34.2101 C.2         1 MOL       0.1404
      2 C2         46.9509   51.0491   33.9875 C.2         1 MOL       0.0782
      3 C3         46.9673   51.6122   32.6961 C.2         1 MOL       0.0387
      4 N4         47.7274   51.0851   31.7442 N.2         1 MOL      -0.2660
      5 N5         48.4729   49.4125   33.1947 N.pl3       1 MOL      -0.1859
      6 C6         48.4789   49.9923   31.9812 C.2         1 MOL       0.1941
      7 N7         49.3248   49.3643   31.1517 N.2         1 MOL      -0.3175
      8 C8         49.8981   48.3601   31.8398 C.2         1 MOL       0.0787
      9 C9         49.3355   48.3747   33.1204 C.2         1 MOL       0.0743
     10 C10        50.8601   47.5208   31.2878 C.2         1 MOL       0.1958
     11 O11        50.8039   47.4768   30.0599 O.2         1 MOL      -0.3941
     12 N12        51.8271   46.8264   31.9293 N.am        1 MOL      -0.2710
     13 C13        46.2242   52.7971   32.2760 C.3         1 MOL      -0.0096
     14 C14        47.8750   49.3616   35.4809 C.ar        1 MOL       0.0400
     15 C15        46.1600   51.6596   35.0761 C.3         1 MOL       0.0036
     16 N16        45.1959   50.7317   35.6796 N.4         1 MOL       0.2296
     17 C17        48.7579   49.9758   36.3981 C.ar        1 MOL      -0.0470
     18 C18        48.9073   49.4785   37.7054 C.ar        1 MOL      -0.0451
     19 C19        48.1816   48.3413   38.1092 C.ar        1 MOL       0.0429
     20 C20        47.3449   47.6835   37.1879 C.ar        1 MOL      -0.0313
     21 C21        47.1969   48.1738   35.8711 C.ar        1 MOL       0.0551
     22 CL22       46.1800   47.3209   34.8127 Cl          1 MOL      -0.0670
     23 CL23       48.3214   47.7681   39.6968 Cl          1 MOL      -0.0685
     24 C24        52.0617   46.8965   33.3670 C.3         1 MOL       0.0564
     25 C25        53.5831   46.9533   33.7323 C.3         1 MOL       0.0680
     26 O26        54.4829   46.3861   32.7463 O.3         1 MOL      -0.3758
     27 C27        53.8895   45.3391   31.9584 C.3         1 MOL       0.0680
     28 C28        52.7043   45.9428   31.1549 C.3         1 MOL       0.0564
     29 H1         49.5445   47.7106   33.8695 H           1 MOL       0.0902
     30 H2         46.3851   53.0402   31.2223 H           1 MOL       0.0451
     31 H3         46.5372   53.6619   32.8605 H           1 MOL       0.0451
     32 H4         45.1564   52.6388   32.4175 H           1 MOL       0.0451
     33 H5         45.5823   52.5268   34.7630 H           1 MOL       0.0958
     34 H6         46.8349   52.0210   35.8561 H           1 MOL       0.0958
     35 H7         44.6146   51.2459   36.3413 H           1 MOL       0.2006
     36 H8         45.6869   49.9883   36.1782 H           1 MOL       0.2006
     37 H9         44.6018   50.3231   34.9521 H           1 MOL       0.2006
     38 H10        49.2917   50.8111   36.1308 H           1 MOL       0.0642
     39 H11        49.5560   49.9343   38.3507 H           1 MOL       0.0629
     40 H12        46.8464   46.8387   37.4771 H           1 MOL       0.0634
     41 H13        51.6422   45.9718   33.7917 H           1 MOL       0.0544
     42 H14        51.5595   47.7502   33.8542 H           1 MOL       0.0544
     43 H15        53.7316   46.4343   34.6871 H           1 MOL       0.0580
     44 H16        53.8824   47.9974   33.8716 H           1 MOL       0.0580
     45 H17        53.5547   44.5063   32.5935 H           1 MOL       0.0580
     46 H18        54.6467   44.9573   31.2680 H           1 MOL       0.0580
     47 H19        53.1494   46.5145   30.3309 H           1 MOL       0.0544
     48 H20        52.1145   45.1202   30.7281 H           1 MOL       0.0544
@<TRIPOS>BOND
     1     1     2   2
     2     1     5   1
     3     1    14   1
     4     2     3   1
     5     2    15   1
     6     3     4   2
     7     3    13   1
     8     4     6   1
     9     5     6   1
    10     5     9   1
    11     6     7   2
    12     7     8   1
    13     8     9   2
    14     8    10   1
    15    10    11   2
    16    10    12  am
    17    12    24   1
    18    12    28   1
    19    14    17  ar
    20    14    21  ar
    21    15    16   1
    22    17    18  ar
    23    18    19  ar
    24    19    20  ar
    25    19    23   1
    26    20    21  ar
    27    21    22   1
    28    24    25   1
    29    25    26   1
    30    26    27   1
    31    27    28   1
    32     9    29   1
    33    13    30   1
    34    13    31   1
    35    13    32   1
    36    15    33   1
    37    15    34   1
    38    16    35   1
    39    16    36   1
    40    16    37   1
    41    17    38   1
    42    18    39   1
    43    20    40   1
    44    24    41   1
    45    24    42   1
    46    25    43   1
    47    25    44   1
    48    27    45   1
    49    27    46   1
    50    28    47   1
    51    28    48   1
@<TRIPOS>SUBSTRUCTURE
     1  MOL      1

