@<TRIPOS>MOLECULE
3nox_ligand_082
    48    51
SMALL
GAST_HUCK
****
This file was generated by PARSER (from files_GN.cpp)

@<TRIPOS>ATOM
      1 C1         48.6464   49.9530   37.4181 C.2         1 MOL       0.1404
      2 C2         48.7750   51.2969   37.2149 C.2         1 MOL       0.0782
      3 C3         49.3433   52.0634   38.2382 C.2         1 MOL       0.0387
      4 N4         49.4769   51.5718   39.4609 N.2         1 MOL      -0.2660
      5 N5         48.8229   49.4732   38.6857 N.pl3       1 MOL      -0.1859
      6 C6         49.1850   50.2828   39.6995 C.2         1 MOL       0.1941
      7 N7         49.2821   49.6315   40.8611 N.2         1 MOL      -0.3175
      8 C8         48.9656   48.3524   40.6012 C.2         1 MOL       0.0787
      9 C9         48.7340   48.2433   39.2263 C.2         1 MOL       0.0743
     10 C10        48.9409   47.3705   41.5799 C.2         1 MOL       0.1958
     11 O11        49.8277   47.4952   42.4239 O.2         1 MOL      -0.3941
     12 N12        48.0074   46.4016   41.7060 N.am        1 MOL      -0.2710
     13 C13        49.9049   53.3859   38.0551 C.3         1 MOL      -0.0096
     14 C14        48.2942   49.0762   36.3792 C.ar        1 MOL       0.0400
     15 C15        48.1720   51.9440   36.0306 C.3         1 MOL       0.0036
     16 N16        46.6967   51.9501   36.1071 N.4         1 MOL       0.2296
     17 C17        47.1663   48.2304   36.5303 C.ar        1 MOL      -0.0470
     18 C18        46.7405   47.4061   35.4752 C.ar        1 MOL      -0.0451
     19 C19        47.4237   47.4116   34.2460 C.ar        1 MOL       0.0429
     20 C20        48.5587   48.2307   34.0856 C.ar        1 MOL      -0.0313
     21 C21        49.0012   49.0531   35.1418 C.ar        1 MOL       0.0551
     22 CL22       50.4312   49.9372   34.8767 Cl          1 MOL      -0.0670
     23 CL23       46.8972   46.4233   32.9816 Cl          1 MOL      -0.0685
     24 C24        46.7383   46.4744   40.9837 C.3         1 MOL       0.0564
     25 C25        45.7576   45.2776   41.1395 C.3         1 MOL       0.0680
     26 O26        45.8750   44.6379   42.4239 O.3         1 MOL      -0.3758
     27 C27        47.2128   44.2244   42.7572 C.3         1 MOL       0.0680
     28 C28        48.1761   45.4289   42.7771 C.3         1 MOL       0.0564
     29 H1         48.5561   47.3815   38.7031 H           1 MOL       0.0902
     30 H2         50.4040   53.7548   38.9535 H           1 MOL       0.0451
     31 H3         49.1100   54.0834   37.8195 H           1 MOL       0.0451
     32 H4         50.6261   53.3750   37.2339 H           1 MOL       0.0451
     33 H5         48.4803   51.4491   35.1043 H           1 MOL       0.0958
     34 H6         48.4636   52.9825   35.9219 H           1 MOL       0.0958
     35 H7         46.3634   52.5730   35.3611 H           1 MOL       0.2006
     36 H8         46.3925   52.3396   37.0154 H           1 MOL       0.2006
     37 H9         46.3204   51.0019   35.9901 H           1 MOL       0.2006
     38 H10        46.6376   48.2173   37.4050 H           1 MOL       0.0642
     39 H11        45.9266   46.8070   35.5966 H           1 MOL       0.0629
     40 H12        49.0723   48.2144   33.2013 H           1 MOL       0.0634
     41 H13        46.9094   46.5588   39.9129 H           1 MOL       0.0544
     42 H14        46.2263   47.3869   41.3033 H           1 MOL       0.0544
     43 H15        45.9156   44.5447   40.3499 H           1 MOL       0.0580
     44 H16        44.7320   45.6312   41.0208 H           1 MOL       0.0580
     45 H17        47.5699   43.4679   42.0636 H           1 MOL       0.0580
     46 H18        47.1971   43.7611   43.7453 H           1 MOL       0.0580
     47 H19        48.0422   45.9551   43.7287 H           1 MOL       0.0544
     48 H20        49.1942   45.0212   42.7499 H           1 MOL       0.0544
@<TRIPOS>BOND
     1     1     2   2
     2     1     5   1
     3     1    14   1
     4     2     3   1
     5     2    15   1
     6     3     4   2
     7     3    13   1
     8     4     6   1
     9     5     6   1
    10     5     9   1
    11     6     7   2
    12     7     8   1
    13     8     9   2
    14     8    10   1
    15    10    11   2
    16    10    12  am
    17    12    24   1
    18    12    28   1
    19    14    17  ar
    20    14    21  ar
    21    15    16   1
    22    17    18  ar
    23    18    19  ar
    24    19    20  ar
    25    19    23   1
    26    20    21  ar
    27    21    22   1
    28    24    25   1
    29    25    26   1
    30    26    27   1
    31    27    28   1
    32     9    29   1
    33    13    30   1
    34    13    31   1
    35    13    32   1
    36    15    33   1
    37    15    34   1
    38    16    35   1
    39    16    36   1
    40    16    37   1
    41    17    38   1
    42    18    39   1
    43    20    40   1
    44    24    41   1
    45    24    42   1
    46    25    43   1
    47    25    44   1
    48    27    45   1
    49    27    46   1
    50    28    47   1
    51    28    48   1
@<TRIPOS>SUBSTRUCTURE
     1  MOL      1

