@<TRIPOS>MOLECULE
3nox_ligand_070
    48    51
SMALL
GAST_HUCK
****
This file was generated by PARSER (from files_GN.cpp)

@<TRIPOS>ATOM
      1 C1         48.6560   46.2754   29.4060 C.2         1 MOL       0.1404
      2 C2         49.5179   45.2073   29.4026 C.2         1 MOL       0.0782
      3 C3         49.6106   44.4406   28.2206 C.2         1 MOL       0.0387
      4 N4         48.8434   44.7244   27.1725 N.2         1 MOL      -0.2660
      5 N5         47.8912   46.5228   28.3095 N.pl3       1 MOL      -0.1859
      6 C6         47.9801   45.7541   27.2079 C.2         1 MOL       0.1941
      7 N7         47.1466   46.1695   26.2453 N.2         1 MOL      -0.3175
      8 C8         46.4750   47.2221   26.7445 C.2         1 MOL       0.0787
      9 C9         46.9654   47.4621   28.0297 C.2         1 MOL       0.0743
     10 C10        45.5215   47.9493   26.0512 C.2         1 MOL       0.1958
     11 O11        45.7968   48.1330   24.8714 O.2         1 MOL      -0.3941
     12 N12        44.3554   48.4093   26.5482 N.am        1 MOL      -0.2710
     13 C13        50.5025   43.3034   28.0294 C.3         1 MOL      -0.0096
     14 C14        48.5281   47.1595   30.4845 C.ar        1 MOL       0.0400
     15 C15        50.2810   44.8428   30.6117 C.3         1 MOL       0.0036
     16 N16        49.4128   44.2270   31.6221 N.4         1 MOL       0.2296
     17 C17        47.4238   47.0152   31.3550 C.ar        1 MOL      -0.0470
     18 C18        47.2355   47.9022   32.4318 C.ar        1 MOL      -0.0451
     19 C19        48.1482   48.9500   32.6503 C.ar        1 MOL       0.0429
     20 C20        49.2384   49.1181   31.7760 C.ar        1 MOL      -0.0313
     21 C21        49.4315   48.2360   30.6918 C.ar        1 MOL       0.0551
     22 CL22       50.7545   48.5313   29.6653 Cl          1 MOL      -0.0670
     23 CL23       47.9249   50.0100   33.9491 Cl          1 MOL      -0.0685
     24 C24        43.7466   47.9259   27.7779 C.3         1 MOL       0.0564
     25 C25        43.4680   49.1267   28.7156 C.3         1 MOL       0.0680
     26 O26        42.6724   50.1209   28.0373 O.3         1 MOL      -0.3758
     27 C27        43.2637   50.5908   26.8068 C.3         1 MOL       0.0680
     28 C28        43.5637   49.4089   25.8481 C.3         1 MOL       0.0564
     29 H1         46.6857   48.2315   28.6420 H           1 MOL       0.0902
     30 H2         50.4287   42.8786   27.0242 H           1 MOL       0.0451
     31 H3         50.2656   42.5092   28.7418 H           1 MOL       0.0451
     32 H4         51.5365   43.6210   28.1686 H           1 MOL       0.0451
     33 H5         50.7607   45.7209   31.0434 H           1 MOL       0.0958
     34 H6         51.0863   44.1380   30.4210 H           1 MOL       0.0958
     35 H7         49.9794   43.9631   32.4330 H           1 MOL       0.2006
     36 H8         48.9720   43.3913   31.2257 H           1 MOL       0.2006
     37 H9         48.6914   44.8912   31.9159 H           1 MOL       0.2006
     38 H10        46.7422   46.2606   31.2167 H           1 MOL       0.0642
     39 H11        46.4355   47.7774   33.0562 H           1 MOL       0.0629
     40 H12        49.8942   49.8908   31.9293 H           1 MOL       0.0634
     41 H13        44.3341   47.1786   28.3128 H           1 MOL       0.0544
     42 H14        42.7935   47.4454   27.5302 H           1 MOL       0.0544
     43 H15        44.4116   49.5669   29.0506 H           1 MOL       0.0580
     44 H16        42.9186   48.7818   29.5946 H           1 MOL       0.0580
     45 H17        44.1836   51.1411   27.0247 H           1 MOL       0.0580
     46 H18        42.5644   51.2788   26.3289 H           1 MOL       0.0580
     47 H19        42.6183   48.9595   25.5285 H           1 MOL       0.0544
     48 H20        44.0488   49.8147   24.9557 H           1 MOL       0.0544
@<TRIPOS>BOND
     1     1     2   2
     2     1     5   1
     3     1    14   1
     4     2     3   1
     5     2    15   1
     6     3     4   2
     7     3    13   1
     8     4     6   1
     9     5     6   1
    10     5     9   1
    11     6     7   2
    12     7     8   1
    13     8     9   2
    14     8    10   1
    15    10    11   2
    16    10    12  am
    17    12    24   1
    18    12    28   1
    19    14    17  ar
    20    14    21  ar
    21    15    16   1
    22    17    18  ar
    23    18    19  ar
    24    19    20  ar
    25    19    23   1
    26    20    21  ar
    27    21    22   1
    28    24    25   1
    29    25    26   1
    30    26    27   1
    31    27    28   1
    32     9    29   1
    33    13    30   1
    34    13    31   1
    35    13    32   1
    36    15    33   1
    37    15    34   1
    38    16    35   1
    39    16    36   1
    40    16    37   1
    41    17    38   1
    42    18    39   1
    43    20    40   1
    44    24    41   1
    45    24    42   1
    46    25    43   1
    47    25    44   1
    48    27    45   1
    49    27    46   1
    50    28    47   1
    51    28    48   1
@<TRIPOS>SUBSTRUCTURE
     1  MOL      1

