@<TRIPOS>MOLECULE
3nox_ligand_057
    48    51
SMALL
GAST_HUCK
****
This file was generated by PARSER (from files_GN.cpp)

@<TRIPOS>ATOM
      1 C1         47.7270   49.4102   33.0861 C.2         1 MOL       0.1404
      2 C2         48.3766   48.7059   32.1061 C.2         1 MOL       0.0782
      3 C3         49.6783   48.2471   32.3803 C.2         1 MOL       0.0387
      4 N4         50.2555   48.5170   33.5458 N.2         1 MOL      -0.2660
      5 N5         48.3601   49.6714   34.2637 N.pl3       1 MOL      -0.1859
      6 C6         49.6107   49.2269   34.4941 C.2         1 MOL       0.1941
      7 N7         50.0404   49.5776   35.7140 N.2         1 MOL      -0.3175
      8 C8         49.0305   50.2486   36.2911 C.2         1 MOL       0.0787
      9 C9         47.9838   50.3303   35.3789 C.2         1 MOL       0.0743
     10 C10        49.0820   50.7486   37.5710 C.2         1 MOL       0.1958
     11 O11        49.8979   51.6529   37.7037 O.2         1 MOL      -0.3941
     12 N12        48.4302   50.2156   38.6236 N.am        1 MOL      -0.2710
     13 C13        50.4988   47.4818   31.4501 C.3         1 MOL      -0.0096
     14 C14        46.4015   49.8393   32.9743 C.ar        1 MOL       0.0400
     15 C15        47.7443   48.4243   30.8016 C.3         1 MOL       0.0036
     16 N16        47.1083   47.1003   30.7912 N.4         1 MOL       0.2296
     17 C17        45.3670   48.8928   33.1637 C.ar        1 MOL      -0.0470
     18 C18        44.0201   49.2831   33.0893 C.ar        1 MOL      -0.0451
     19 C19        43.6885   50.6274   32.8475 C.ar        1 MOL       0.0429
     20 C20        44.7088   51.5822   32.6733 C.ar        1 MOL      -0.0313
     21 C21        46.0644   51.1975   32.7310 C.ar        1 MOL       0.0551
     22 CL22       47.2389   52.4040   32.4989 Cl          1 MOL      -0.0670
     23 CL23       42.0642   51.0885   32.7762 Cl          1 MOL      -0.0685
     24 C24        48.7956   50.5621   39.9906 C.3         1 MOL       0.0564
     25 C25        49.1705   49.2773   40.7798 C.3         1 MOL       0.0680
     26 O26        48.1423   48.2732   40.6679 O.3         1 MOL      -0.3758
     27 C27        47.8067   47.9391   39.3056 C.3         1 MOL       0.0680
     28 C28        47.3836   49.2076   38.5272 C.3         1 MOL       0.0564
     29 H1         47.0937   50.8046   35.5453 H           1 MOL       0.0902
     30 H2         51.4582   47.1860   31.8830 H           1 MOL       0.0451
     31 H3         50.7120   48.0846   30.5664 H           1 MOL       0.0451
     32 H4         49.9825   46.5714   31.1462 H           1 MOL       0.0451
     33 H5         48.4655   48.4687   29.9871 H           1 MOL       0.0958
     34 H6         46.9822   49.1610   30.5443 H           1 MOL       0.0958
     35 H7         46.6851   46.9313   29.8771 H           1 MOL       0.2006
     36 H8         46.3808   47.0582   31.5065 H           1 MOL       0.2006
     37 H9         47.8022   46.3754   30.9764 H           1 MOL       0.2006
     38 H10        45.5839   47.9120   33.3651 H           1 MOL       0.0642
     39 H11        43.2852   48.5848   33.2214 H           1 MOL       0.0629
     40 H12        44.4619   52.5634   32.5096 H           1 MOL       0.0634
     41 H13        47.9472   51.0391   40.4802 H           1 MOL       0.0544
     42 H14        49.6376   51.2557   40.0634 H           1 MOL       0.0544
     43 H15        49.2966   49.5206   41.8367 H           1 MOL       0.0580
     44 H16        50.1201   48.8696   40.4209 H           1 MOL       0.0580
     45 H17        46.9810   47.2226   39.3118 H           1 MOL       0.0580
     46 H18        48.6584   47.4674   38.8106 H           1 MOL       0.0580
     47 H19        47.1324   48.9058   37.5112 H           1 MOL       0.0544
     48 H20        46.4666   49.6071   38.9732 H           1 MOL       0.0544
@<TRIPOS>BOND
     1     1     2   2
     2     1     5   1
     3     1    14   1
     4     2     3   1
     5     2    15   1
     6     3     4   2
     7     3    13   1
     8     4     6   1
     9     5     6   1
    10     5     9   1
    11     6     7   2
    12     7     8   1
    13     8     9   2
    14     8    10   1
    15    10    11   2
    16    10    12  am
    17    12    24   1
    18    12    28   1
    19    14    17  ar
    20    14    21  ar
    21    15    16   1
    22    17    18  ar
    23    18    19  ar
    24    19    20  ar
    25    19    23   1
    26    20    21  ar
    27    21    22   1
    28    24    25   1
    29    25    26   1
    30    26    27   1
    31    27    28   1
    32     9    29   1
    33    13    30   1
    34    13    31   1
    35    13    32   1
    36    15    33   1
    37    15    34   1
    38    16    35   1
    39    16    36   1
    40    16    37   1
    41    17    38   1
    42    18    39   1
    43    20    40   1
    44    24    41   1
    45    24    42   1
    46    25    43   1
    47    25    44   1
    48    27    45   1
    49    27    46   1
    50    28    47   1
    51    28    48   1
@<TRIPOS>SUBSTRUCTURE
     1  MOL      1

