@<TRIPOS>MOLECULE
3nox_ligand_053
    48    51
SMALL
GAST_HUCK
****
This file was generated by PARSER (from files_GN.cpp)

@<TRIPOS>ATOM
      1 C1         47.7979   50.4681   32.1402 C.2         1 MOL       0.1404
      2 C2         46.9324   51.2016   31.3655 C.2         1 MOL       0.0782
      3 C3         45.6197   51.3891   31.8420 C.2         1 MOL       0.0387
      4 N4         45.2433   50.8668   33.0024 N.2         1 MOL      -0.2660
      5 N5         47.3479   49.9071   33.3010 N.pl3       1 MOL      -0.1859
      6 C6         46.0955   50.1284   33.7402 C.2         1 MOL       0.1941
      7 N7         45.8709   49.5232   34.9164 N.2         1 MOL      -0.3175
      8 C8         46.9967   48.8681   35.2324 C.2         1 MOL       0.0787
      9 C9         47.9232   49.0928   34.2136 C.2         1 MOL       0.0743
     10 C10        47.1503   48.0848   36.3558 C.2         1 MOL       0.1958
     11 O11        47.2475   46.8942   36.1071 O.2         1 MOL      -0.3941
     12 N12        47.0857   48.5388   37.6182 N.am        1 MOL      -0.2710
     13 C13        44.5764   52.1374   31.1533 C.3         1 MOL      -0.0096
     14 C14        49.1484   50.2825   31.8263 C.ar        1 MOL       0.0400
     15 C15        47.3804   51.8802   30.1360 C.3         1 MOL       0.0036
     16 N16        48.0001   53.1670   30.4511 N.4         1 MOL       0.2296
     17 C17        50.1188   51.0549   32.5114 C.ar        1 MOL      -0.0470
     18 C18        51.4900   50.8536   32.2770 C.ar        1 MOL      -0.0451
     19 C19        51.9124   49.8924   31.3398 C.ar        1 MOL       0.0429
     20 C20        50.9576   49.1176   30.6564 C.ar        1 MOL      -0.0313
     21 C21        49.5777   49.2900   30.9109 C.ar        1 MOL       0.0551
     22 CL22       48.5005   48.2437   30.1155 Cl          1 MOL      -0.0670
     23 CL23       53.5671   49.6560   31.0568 Cl          1 MOL      -0.0685
     24 C24        47.1276   49.9488   37.9705 C.3         1 MOL       0.0564
     25 C25        48.2929   50.2112   38.9560 C.3         1 MOL       0.0680
     26 O26        48.2096   49.3383   40.0997 O.3         1 MOL      -0.3758
     27 C27        48.1916   47.9397   39.7419 C.3         1 MOL       0.0680
     28 C28        47.0337   47.6377   38.7658 C.3         1 MOL       0.0564
     29 H1         48.8698   48.7146   34.1794 H           1 MOL       0.0902
     30 H2         43.6489   52.1996   31.7342 H           1 MOL       0.0451
     31 H3         44.3340   51.6551   30.2022 H           1 MOL       0.0451
     32 H4         44.9117   53.1568   30.9631 H           1 MOL       0.0451
     33 H5         46.5700   52.0622   29.4331 H           1 MOL       0.0958
     34 H6         48.0949   51.2726   29.5816 H           1 MOL       0.0958
     35 H7         48.3124   53.6157   29.5854 H           1 MOL       0.2006
     36 H8         48.8069   53.0271   31.0677 H           1 MOL       0.2006
     37 H9         47.3220   53.7747   30.9187 H           1 MOL       0.2006
     38 H10        49.8340   51.7565   33.2001 H           1 MOL       0.0642
     39 H11        52.1795   51.3979   32.8026 H           1 MOL       0.0629
     40 H12        51.2725   48.4126   29.9852 H           1 MOL       0.0634
     41 H13        46.1848   50.2205   38.4449 H           1 MOL       0.0544
     42 H14        47.2651   50.6194   37.1186 H           1 MOL       0.0544
     43 H15        48.2602   51.2424   39.3132 H           1 MOL       0.0580
     44 H16        49.2502   50.0658   38.4474 H           1 MOL       0.0580
     45 H17        48.0638   47.3498   40.6550 H           1 MOL       0.0580
     46 H18        49.1446   47.6584   39.2888 H           1 MOL       0.0580
     47 H19        47.0798   46.5776   38.4992 H           1 MOL       0.0544
     48 H20        46.0858   47.7944   39.2895 H           1 MOL       0.0544
@<TRIPOS>BOND
     1     1     2   2
     2     1     5   1
     3     1    14   1
     4     2     3   1
     5     2    15   1
     6     3     4   2
     7     3    13   1
     8     4     6   1
     9     5     6   1
    10     5     9   1
    11     6     7   2
    12     7     8   1
    13     8     9   2
    14     8    10   1
    15    10    11   2
    16    10    12  am
    17    12    24   1
    18    12    28   1
    19    14    17  ar
    20    14    21  ar
    21    15    16   1
    22    17    18  ar
    23    18    19  ar
    24    19    20  ar
    25    19    23   1
    26    20    21  ar
    27    21    22   1
    28    24    25   1
    29    25    26   1
    30    26    27   1
    31    27    28   1
    32     9    29   1
    33    13    30   1
    34    13    31   1
    35    13    32   1
    36    15    33   1
    37    15    34   1
    38    16    35   1
    39    16    36   1
    40    16    37   1
    41    17    38   1
    42    18    39   1
    43    20    40   1
    44    24    41   1
    45    24    42   1
    46    25    43   1
    47    25    44   1
    48    27    45   1
    49    27    46   1
    50    28    47   1
    51    28    48   1
@<TRIPOS>SUBSTRUCTURE
     1  MOL      1

