@<TRIPOS>MOLECULE
3nox_ligand_077
    48    51
SMALL
GAST_HUCK
****
This file was generated by PARSER (from files_GN.cpp)

@<TRIPOS>ATOM
      1 C1         58.2583   50.9174   33.3352 C.2         1 MOL       0.1404
      2 C2         58.1060   52.2751   33.4281 C.2         1 MOL       0.0782
      3 C3         56.9454   52.7622   34.0619 C.2         1 MOL       0.0387
      4 N4         56.0148   51.9275   34.5101 N.2         1 MOL      -0.2660
      5 N5         57.2910   50.1071   33.8481 N.pl3       1 MOL      -0.1859
      6 C6         56.1694   50.5964   34.3998 C.2         1 MOL       0.1941
      7 N7         55.3365   49.6151   34.7756 N.2         1 MOL      -0.3175
      8 C8         55.9286   48.4464   34.4582 C.2         1 MOL       0.0787
      9 C9         57.1812   48.7717   33.9377 C.2         1 MOL       0.0743
     10 C10        55.3798   47.1875   34.6902 C.2         1 MOL       0.1958
     11 O11        54.4747   47.1973   35.5183 O.2         1 MOL      -0.3941
     12 N12        55.7423   46.0117   34.1288 N.am        1 MOL      -0.2710
     13 C13        56.6555   54.1692   34.2929 C.3         1 MOL      -0.0096
     14 C14        59.3785   50.2868   32.7729 C.ar        1 MOL       0.0400
     15 C15        59.1362   53.2183   32.9459 C.3         1 MOL       0.0036
     16 N16        60.0941   53.5640   34.0035 N.4         1 MOL       0.2296
     17 C17        60.3188   49.7024   33.6531 C.ar        1 MOL      -0.0470
     18 C18        61.4361   49.0089   33.1601 C.ar        1 MOL      -0.0451
     19 C19        61.6469   48.9080   31.7737 C.ar        1 MOL       0.0429
     20 C20        60.7167   49.4771   30.8834 C.ar        1 MOL      -0.0313
     21 C21        59.5715   50.1426   31.3714 C.ar        1 MOL       0.0551
     22 CL22       58.4500   50.7130   30.2303 Cl          1 MOL      -0.0670
     23 CL23       63.0050   48.0876   31.1846 Cl          1 MOL      -0.0685
     24 C24        56.5181   45.8763   32.8999 C.3         1 MOL       0.0564
     25 C25        55.8020   44.9685   31.8731 C.3         1 MOL       0.0680
     26 O26        55.4231   43.7207   32.4717 O.3         1 MOL      -0.3758
     27 C27        54.5987   43.8896   33.6391 C.3         1 MOL       0.0680
     28 C28        55.3321   44.7399   34.7042 C.3         1 MOL       0.0564
     29 H1         57.9122   48.1146   33.6731 H           1 MOL       0.0902
     30 H2         55.7282   54.3216   34.8533 H           1 MOL       0.0451
     31 H3         56.5639   54.6996   33.3436 H           1 MOL       0.0451
     32 H4         57.4577   54.6125   34.8770 H           1 MOL       0.0451
     33 H5         58.6837   54.1342   32.5620 H           1 MOL       0.0958
     34 H6         59.7273   52.8232   32.1220 H           1 MOL       0.0958
     35 H7         60.8230   54.1651   33.6132 H           1 MOL       0.2006
     36 H8         60.5221   52.7127   34.3727 H           1 MOL       0.2006
     37 H9         59.6291   54.0623   34.7623 H           1 MOL       0.2006
     38 H10        60.1828   49.7534   34.6670 H           1 MOL       0.0642
     39 H11        62.0913   48.5869   33.8207 H           1 MOL       0.0629
     40 H12        60.8709   49.3932   29.8751 H           1 MOL       0.0634
     41 H13        57.4966   45.4486   33.1387 H           1 MOL       0.0544
     42 H14        56.6751   46.8042   32.3582 H           1 MOL       0.0544
     43 H15        56.4741   44.7573   31.0387 H           1 MOL       0.0580
     44 H16        54.9202   45.4761   31.4733 H           1 MOL       0.0580
     45 H17        54.3875   42.9045   34.0480 H           1 MOL       0.0580
     46 H18        53.6509   44.3609   33.3665 H           1 MOL       0.0580
     47 H19        54.6855   44.8256   35.5789 H           1 MOL       0.0544
     48 H20        56.2231   44.2067   35.0416 H           1 MOL       0.0544
@<TRIPOS>BOND
     1     1     2   2
     2     1     5   1
     3     1    14   1
     4     2     3   1
     5     2    15   1
     6     3     4   2
     7     3    13   1
     8     4     6   1
     9     5     6   1
    10     5     9   1
    11     6     7   2
    12     7     8   1
    13     8     9   2
    14     8    10   1
    15    10    11   2
    16    10    12  am
    17    12    24   1
    18    12    28   1
    19    14    17  ar
    20    14    21  ar
    21    15    16   1
    22    17    18  ar
    23    18    19  ar
    24    19    20  ar
    25    19    23   1
    26    20    21  ar
    27    21    22   1
    28    24    25   1
    29    25    26   1
    30    26    27   1
    31    27    28   1
    32     9    29   1
    33    13    30   1
    34    13    31   1
    35    13    32   1
    36    15    33   1
    37    15    34   1
    38    16    35   1
    39    16    36   1
    40    16    37   1
    41    17    38   1
    42    18    39   1
    43    20    40   1
    44    24    41   1
    45    24    42   1
    46    25    43   1
    47    25    44   1
    48    27    45   1
    49    27    46   1
    50    28    47   1
    51    28    48   1
@<TRIPOS>SUBSTRUCTURE
     1  MOL      1

