@<TRIPOS>MOLECULE
3nox_ligand_029
    48    51
SMALL
GAST_HUCK
****
This file was generated by PARSER (from files_GN.cpp)

@<TRIPOS>ATOM
      1 C1         58.0941   45.4605   34.2540 C.2         1 MOL       0.1404
      2 C2         57.5517   45.3069   35.5060 C.2         1 MOL       0.0782
      3 C3         56.1474   45.2068   35.6094 C.2         1 MOL       0.0387
      4 N4         55.3929   45.1534   34.5189 N.2         1 MOL      -0.2660
      5 N5         57.2624   45.4736   33.1666 N.pl3       1 MOL      -0.1859
      6 C6         55.9379   45.2667   33.2957 C.2         1 MOL       0.1941
      7 N7         55.3136   45.2286   32.1099 N.2         1 MOL      -0.3175
      8 C8         56.2550   45.4647   31.1830 C.2         1 MOL       0.0787
      9 C9         57.4738   45.6347   31.8438 C.2         1 MOL       0.0743
     10 C10        56.0439   45.4535   29.8170 C.2         1 MOL       0.1958
     11 O11        55.5114   44.4269   29.4103 O.2         1 MOL      -0.3941
     12 N12        56.3762   46.4416   28.9645 N.am        1 MOL      -0.2710
     13 C13        55.3966   45.2104   36.8591 C.3         1 MOL      -0.0096
     14 C14        59.4781   45.4706   33.9910 C.ar        1 MOL       0.0400
     15 C15        58.3711   45.2146   36.7379 C.3         1 MOL       0.0036
     16 N16        58.3894   43.8709   37.3409 N.4         1 MOL       0.2296
     17 C17        60.0263   44.3840   33.2650 C.ar        1 MOL      -0.0470
     18 C18        61.3937   44.3386   32.9461 C.ar        1 MOL      -0.0451
     19 C19        62.2512   45.3650   33.3819 C.ar        1 MOL       0.0429
     20 C20        61.7245   46.4592   34.0954 C.ar        1 MOL      -0.0313
     21 C21        60.3430   46.5323   34.3759 C.ar        1 MOL       0.0551
     22 CL22       59.7587   47.9298   35.1420 Cl          1 MOL      -0.0670
     23 CL23       63.9005   45.2818   33.0123 Cl          1 MOL      -0.0685
     24 C24        56.6538   47.8037   29.3957 C.3         1 MOL       0.0564
     25 C25        55.6522   48.7697   28.7100 C.3         1 MOL       0.0680
     26 O26        55.6540   48.5924   27.2799 O.3         1 MOL      -0.3758
     27 C27        55.3775   47.2389   26.8661 C.3         1 MOL       0.0680
     28 C28        56.3744   46.2515   27.5222 C.3         1 MOL       0.0564
     29 H1         58.3759   45.7998   31.3905 H           1 MOL       0.0902
     30 H2         54.3198   45.2300   36.6906 H           1 MOL       0.0451
     31 H3         55.6425   46.1021   37.4372 H           1 MOL       0.0451
     32 H4         55.6119   44.3211   37.4458 H           1 MOL       0.0451
     33 H5         58.0100   45.9299   37.4823 H           1 MOL       0.0958
     34 H6         59.4114   45.4793   36.5679 H           1 MOL       0.0958
     35 H7         58.9856   43.8869   38.1732 H           1 MOL       0.2006
     36 H8         58.7684   43.1919   36.6782 H           1 MOL       0.2006
     37 H9         57.4471   43.5777   37.6096 H           1 MOL       0.2006
     38 H10        59.4296   43.6196   32.9464 H           1 MOL       0.0642
     39 H11        61.7569   43.5553   32.3953 H           1 MOL       0.0629
     40 H12        62.3507   47.2136   34.4005 H           1 MOL       0.0634
     41 H13        57.6726   48.0729   29.1078 H           1 MOL       0.0544
     42 H14        56.5672   47.9563   30.4739 H           1 MOL       0.0544
     43 H15        55.9328   49.8012   28.9292 H           1 MOL       0.0580
     44 H16        54.6454   48.6026   29.1043 H           1 MOL       0.0580
     45 H17        55.4721   47.1853   25.7785 H           1 MOL       0.0580
     46 H18        54.3504   46.9653   27.1296 H           1 MOL       0.0580
     47 H19        56.1190   45.2375   27.2037 H           1 MOL       0.0544
     48 H20        57.3772   46.4573   27.1394 H           1 MOL       0.0544
@<TRIPOS>BOND
     1     1     2   2
     2     1     5   1
     3     1    14   1
     4     2     3   1
     5     2    15   1
     6     3     4   2
     7     3    13   1
     8     4     6   1
     9     5     6   1
    10     5     9   1
    11     6     7   2
    12     7     8   1
    13     8     9   2
    14     8    10   1
    15    10    11   2
    16    10    12  am
    17    12    24   1
    18    12    28   1
    19    14    17  ar
    20    14    21  ar
    21    15    16   1
    22    17    18  ar
    23    18    19  ar
    24    19    20  ar
    25    19    23   1
    26    20    21  ar
    27    21    22   1
    28    24    25   1
    29    25    26   1
    30    26    27   1
    31    27    28   1
    32     9    29   1
    33    13    30   1
    34    13    31   1
    35    13    32   1
    36    15    33   1
    37    15    34   1
    38    16    35   1
    39    16    36   1
    40    16    37   1
    41    17    38   1
    42    18    39   1
    43    20    40   1
    44    24    41   1
    45    24    42   1
    46    25    43   1
    47    25    44   1
    48    27    45   1
    49    27    46   1
    50    28    47   1
    51    28    48   1
@<TRIPOS>SUBSTRUCTURE
     1  MOL      1

