@<TRIPOS>MOLECULE
3nox_ligand_062
    48    51
SMALL
GAST_HUCK
****
This file was generated by PARSER (from files_GN.cpp)

@<TRIPOS>ATOM
      1 C1         55.9277   55.0908   33.9682 C.2         1 MOL       0.1404
      2 C2         56.2527   53.8896   34.5430 C.2         1 MOL       0.0782
      3 C3         55.4776   53.4552   35.6357 C.2         1 MOL       0.0387
      4 N4         54.5382   54.2415   36.1571 N.2         1 MOL      -0.2660
      5 N5         54.9600   55.8647   34.5484 N.pl3       1 MOL      -0.1859
      6 C6         54.2848   55.4506   35.6319 C.2         1 MOL       0.1941
      7 N7         53.4109   56.3791   36.0458 N.2         1 MOL      -0.3175
      8 C8         53.4949   57.4409   35.2230 C.2         1 MOL       0.0787
      9 C9         54.4684   57.0870   34.2719 C.2         1 MOL       0.0743
     10 C10        52.8094   58.6706   35.2670 C.2         1 MOL       0.1958
     11 O11        52.9877   59.3527   34.2668 O.2         1 MOL      -0.3941
     12 N12        52.0197   59.1857   36.2419 N.am        1 MOL      -0.2710
     13 C13        55.5755   52.1448   36.2593 C.3         1 MOL      -0.0096
     14 C14        56.5619   55.5955   32.8220 C.ar        1 MOL       0.0400
     15 C15        57.4001   53.0698   34.0866 C.3         1 MOL       0.0036
     16 N16        58.5095   53.0501   35.0497 N.4         1 MOL       0.2296
     17 C17        57.4499   56.6907   32.9568 C.ar        1 MOL      -0.0470
     18 C18        58.1033   57.2332   31.8367 C.ar        1 MOL      -0.0451
     19 C19        57.8926   56.6826   30.5600 C.ar        1 MOL       0.0429
     20 C20        57.0208   55.5888   30.4098 C.ar        1 MOL      -0.0313
     21 C21        56.3483   55.0476   31.5256 C.ar        1 MOL       0.0551
     22 CL22       55.2923   53.7486   31.2423 Cl          1 MOL      -0.0670
     23 CL23       58.6819   57.3366   29.2123 Cl          1 MOL      -0.0685
     24 C24        51.4616   60.5400   36.1601 C.3         1 MOL       0.0564
     25 C25        49.9224   60.5123   36.3432 C.3         1 MOL       0.0680
     26 O26        49.5395   59.7888   37.5219 O.3         1 MOL      -0.3758
     27 C27        50.0947   58.4626   37.5822 C.3         1 MOL       0.0680
     28 C28        51.6378   58.5078   37.4690 C.3         1 MOL       0.0564
     29 H1         54.7756   57.6813   33.5005 H           1 MOL       0.0902
     30 H2         54.8235   51.9942   37.0381 H           1 MOL       0.0451
     31 H3         56.5498   52.0301   36.7269 H           1 MOL       0.0451
     32 H4         55.4394   51.3594   35.5137 H           1 MOL       0.0451
     33 H5         57.8396   53.4152   33.1523 H           1 MOL       0.0958
     34 H6         57.0768   52.0460   33.8984 H           1 MOL       0.0958
     35 H7         59.3070   52.5622   34.6335 H           1 MOL       0.2006
     36 H8         58.2345   52.5566   35.8979 H           1 MOL       0.2006
     37 H9         58.7890   54.0034   35.2932 H           1 MOL       0.2006
     38 H10        57.6272   57.1039   33.8767 H           1 MOL       0.0642
     39 H11        58.7301   58.0327   31.9545 H           1 MOL       0.0629
     40 H12        56.8709   55.1918   29.4782 H           1 MOL       0.0634
     41 H13        51.6604   61.0612   35.2223 H           1 MOL       0.0544
     42 H14        51.8998   61.1482   36.9565 H           1 MOL       0.0544
     43 H15        49.4478   60.0591   35.4728 H           1 MOL       0.0580
     44 H16        49.5490   61.5309   36.4462 H           1 MOL       0.0580
     45 H17        49.6682   57.8475   36.7839 H           1 MOL       0.0580
     46 H18        49.8093   58.0300   38.5425 H           1 MOL       0.0580
     47 H19        52.0393   59.0503   38.3271 H           1 MOL       0.0544
     48 H20        51.9957   57.4934   37.5661 H           1 MOL       0.0544
@<TRIPOS>BOND
     1     1     2   2
     2     1     5   1
     3     1    14   1
     4     2     3   1
     5     2    15   1
     6     3     4   2
     7     3    13   1
     8     4     6   1
     9     5     6   1
    10     5     9   1
    11     6     7   2
    12     7     8   1
    13     8     9   2
    14     8    10   1
    15    10    11   2
    16    10    12  am
    17    12    24   1
    18    12    28   1
    19    14    17  ar
    20    14    21  ar
    21    15    16   1
    22    17    18  ar
    23    18    19  ar
    24    19    20  ar
    25    19    23   1
    26    20    21  ar
    27    21    22   1
    28    24    25   1
    29    25    26   1
    30    26    27   1
    31    27    28   1
    32     9    29   1
    33    13    30   1
    34    13    31   1
    35    13    32   1
    36    15    33   1
    37    15    34   1
    38    16    35   1
    39    16    36   1
    40    16    37   1
    41    17    38   1
    42    18    39   1
    43    20    40   1
    44    24    41   1
    45    24    42   1
    46    25    43   1
    47    25    44   1
    48    27    45   1
    49    27    46   1
    50    28    47   1
    51    28    48   1
@<TRIPOS>SUBSTRUCTURE
     1  MOL      1

