@<TRIPOS>MOLECULE
3nox_ligand_004
    48    51
SMALL
GAST_HUCK
****
This file was generated by PARSER (from files_GN.cpp)

@<TRIPOS>ATOM
      1 C1         48.4321   50.9224   34.0842 C.2         1 MOL       0.1404
      2 C2         47.7737   50.4627   35.1988 C.2         1 MOL       0.0782
      3 C3         48.5410   49.8801   36.2285 C.2         1 MOL       0.0387
      4 N4         49.8547   49.7437   36.0896 N.2         1 MOL      -0.2660
      5 N5         49.7923   50.8344   34.0372 N.pl3       1 MOL      -0.1859
      6 C6         50.4945   50.2208   35.0092 C.2         1 MOL       0.1941
      7 N7         51.8071   50.1950   34.7385 N.2         1 MOL      -0.3175
      8 C8         51.9610   50.8488   33.5770 C.2         1 MOL       0.0787
      9 C9         50.7035   51.2679   33.1444 C.2         1 MOL       0.0743
     10 C10        53.1683   51.0504   32.9446 C.2         1 MOL       0.1958
     11 O11        53.4169   52.2312   32.7306 O.2         1 MOL      -0.3941
     12 N12        54.0259   50.0728   32.5953 N.am        1 MOL      -0.2710
     13 C13        48.0080   49.3570   37.4799 C.3         1 MOL      -0.0096
     14 C14        47.7837   51.4299   32.9420 C.ar        1 MOL       0.0400
     15 C15        46.3039   50.5159   35.3213 C.3         1 MOL       0.0036
     16 N16        45.8831   51.6905   36.0942 N.4         1 MOL       0.2296
     17 C17        47.0670   52.6464   33.0341 C.ar        1 MOL      -0.0470
     18 C18        46.3663   53.1663   31.9348 C.ar        1 MOL      -0.0451
     19 C19        46.4374   52.5151   30.6919 C.ar        1 MOL       0.0429
     20 C20        47.1780   51.3239   30.5658 C.ar        1 MOL      -0.0313
     21 C21        47.8291   50.7662   31.6846 C.ar        1 MOL       0.0551
     22 CL22       48.6143   49.2721   31.4681 Cl          1 MOL      -0.0670
     23 CL23       45.6337   53.1608   29.3499 Cl          1 MOL      -0.0685
     24 C24        53.6457   48.6660   32.5101 C.3         1 MOL       0.0564
     25 C25        53.9207   48.1371   31.0773 C.3         1 MOL       0.0680
     26 O26        55.2800   48.4074   30.6745 O.3         1 MOL      -0.3758
     27 C27        55.6345   49.8048   30.7507 C.3         1 MOL       0.0680
     28 C28        55.3873   50.3565   32.1776 C.3         1 MOL       0.0564
     29 H1         50.5087   51.7829   32.2830 H           1 MOL       0.0902
     30 H2         48.7940   48.9908   38.1450 H           1 MOL       0.0451
     31 H3         47.3425   48.5193   37.2790 H           1 MOL       0.0451
     32 H4         47.4602   50.1330   38.0201 H           1 MOL       0.0451
     33 H5         45.9087   49.6203   35.8029 H           1 MOL       0.0958
     34 H6         45.8046   50.5548   34.3511 H           1 MOL       0.0958
     35 H7         44.8631   51.7219   36.1374 H           1 MOL       0.2006
     36 H8         46.2173   52.5472   35.6456 H           1 MOL       0.2006
     37 H9         46.2475   51.6483   37.0505 H           1 MOL       0.2006
     38 H10        47.0376   53.1591   33.9108 H           1 MOL       0.0642
     39 H11        45.7928   54.0096   32.0520 H           1 MOL       0.0629
     40 H12        47.2280   50.8582   29.6590 H           1 MOL       0.0634
     41 H13        52.5923   48.4754   32.7303 H           1 MOL       0.0544
     42 H14        54.2378   48.0906   33.2252 H           1 MOL       0.0544
     43 H15        53.2258   48.5968   30.3705 H           1 MOL       0.0580
     44 H16        53.7654   47.0574   31.0505 H           1 MOL       0.0580
     45 H17        55.0623   50.3819   30.0181 H           1 MOL       0.0580
     46 H18        56.6943   49.9032   30.5080 H           1 MOL       0.0580
     47 H19        56.0744   49.8623   32.8744 H           1 MOL       0.0544
     48 H20        55.6447   51.4197   32.1833 H           1 MOL       0.0544
@<TRIPOS>BOND
     1     1     2   2
     2     1     5   1
     3     1    14   1
     4     2     3   1
     5     2    15   1
     6     3     4   2
     7     3    13   1
     8     4     6   1
     9     5     6   1
    10     5     9   1
    11     6     7   2
    12     7     8   1
    13     8     9   2
    14     8    10   1
    15    10    11   2
    16    10    12  am
    17    12    24   1
    18    12    28   1
    19    14    17  ar
    20    14    21  ar
    21    15    16   1
    22    17    18  ar
    23    18    19  ar
    24    19    20  ar
    25    19    23   1
    26    20    21  ar
    27    21    22   1
    28    24    25   1
    29    25    26   1
    30    26    27   1
    31    27    28   1
    32     9    29   1
    33    13    30   1
    34    13    31   1
    35    13    32   1
    36    15    33   1
    37    15    34   1
    38    16    35   1
    39    16    36   1
    40    16    37   1
    41    17    38   1
    42    18    39   1
    43    20    40   1
    44    24    41   1
    45    24    42   1
    46    25    43   1
    47    25    44   1
    48    27    45   1
    49    27    46   1
    50    28    47   1
    51    28    48   1
@<TRIPOS>SUBSTRUCTURE
     1  MOL      1

