@<TRIPOS>MOLECULE
3nox_ligand_040
    48    51
SMALL
GAST_HUCK
****
This file was generated by PARSER (from files_GN.cpp)

@<TRIPOS>ATOM
      1 C1         48.1227   49.2697   34.8314 C.2         1 MOL       0.1404
      2 C2         46.8703   49.1133   34.2911 C.2         1 MOL       0.0782
      3 C3         46.7626   48.3732   33.0987 C.2         1 MOL       0.0387
      4 N4         47.8375   47.8395   32.5333 N.2         1 MOL      -0.2660
      5 N5         49.2034   48.7176   34.2069 N.pl3       1 MOL      -0.1859
      6 C6         49.0580   48.0013   33.0763 C.2         1 MOL       0.1941
      7 N7         50.2289   47.5278   32.6323 N.2         1 MOL      -0.3175
      8 C8         51.1620   47.9575   33.4952 C.2         1 MOL       0.0787
      9 C9         50.5237   48.6953   34.4891 C.2         1 MOL       0.0743
     10 C10        52.5029   47.6810   33.3503 C.2         1 MOL       0.1958
     11 O11        52.7605   46.4857   33.4242 O.2         1 MOL      -0.3941
     12 N12        53.4310   48.5817   32.9699 N.am        1 MOL      -0.2710
     13 C13        45.5211   48.1506   32.3706 C.3         1 MOL      -0.0096
     14 C14        48.3680   49.9784   36.0104 C.ar        1 MOL       0.0400
     15 C15        45.6736   49.7390   34.8961 C.3         1 MOL       0.0036
     16 N16        45.4846   51.1232   34.4505 N.4         1 MOL       0.2296
     17 C17        48.9928   51.2440   35.9169 C.ar        1 MOL      -0.0470
     18 C18        49.3101   51.9752   37.0743 C.ar        1 MOL      -0.0451
     19 C19        48.9930   51.4551   38.3415 C.ar        1 MOL       0.0429
     20 C20        48.3729   50.1971   38.4492 C.ar        1 MOL      -0.0313
     21 C21        48.0813   49.4425   37.2954 C.ar        1 MOL       0.0551
     22 CL22       47.4128   47.8968   37.5206 Cl          1 MOL      -0.0670
     23 CL23       49.3693   52.3362   39.7341 Cl          1 MOL      -0.0685
     24 C24        54.7470   48.1575   32.5243 C.3         1 MOL       0.0564
     25 C25        55.8678   49.0625   33.1054 C.3         1 MOL       0.0680
     26 O26        55.4616   50.4181   33.4007 O.3         1 MOL      -0.3758
     27 C27        54.3669   50.9065   32.6074 C.3         1 MOL       0.0680
     28 C28        53.1262   50.0074   32.8648 C.3         1 MOL       0.0564
     29 H1         50.9802   49.1134   35.3038 H           1 MOL       0.0902
     30 H2         45.6694   47.5754   31.4525 H           1 MOL       0.0451
     31 H3         45.0828   49.1104   32.0948 H           1 MOL       0.0451
     32 H4         44.8188   47.5964   32.9935 H           1 MOL       0.0451
     33 H5         45.7176   49.7433   35.9836 H           1 MOL       0.0958
     34 H6         44.7567   49.2019   34.6584 H           1 MOL       0.0958
     35 H7         44.6378   51.4914   34.8898 H           1 MOL       0.2006
     36 H8         45.3691   51.1474   33.4354 H           1 MOL       0.2006
     37 H9         46.2849   51.7004   34.7208 H           1 MOL       0.2006
     38 H10        49.2347   51.6370   35.0028 H           1 MOL       0.0642
     39 H11        49.7735   52.8830   36.9911 H           1 MOL       0.0629
     40 H12        48.1438   49.8251   39.3744 H           1 MOL       0.0634
     41 H13        54.7604   48.2469   31.4347 H           1 MOL       0.0544
     42 H14        54.9892   47.1179   32.7558 H           1 MOL       0.0544
     43 H15        56.7062   49.0924   32.4047 H           1 MOL       0.0580
     44 H16        56.2308   48.6251   34.0387 H           1 MOL       0.0580
     45 H17        54.6344   50.9078   31.5473 H           1 MOL       0.0580
     46 H18        54.1505   51.9352   32.9026 H           1 MOL       0.0580
     47 H19        52.6936   50.3477   33.8105 H           1 MOL       0.0544
     48 H20        52.3890   50.1801   32.0733 H           1 MOL       0.0544
@<TRIPOS>BOND
     1     1     2   2
     2     1     5   1
     3     1    14   1
     4     2     3   1
     5     2    15   1
     6     3     4   2
     7     3    13   1
     8     4     6   1
     9     5     6   1
    10     5     9   1
    11     6     7   2
    12     7     8   1
    13     8     9   2
    14     8    10   1
    15    10    11   2
    16    10    12  am
    17    12    24   1
    18    12    28   1
    19    14    17  ar
    20    14    21  ar
    21    15    16   1
    22    17    18  ar
    23    18    19  ar
    24    19    20  ar
    25    19    23   1
    26    20    21  ar
    27    21    22   1
    28    24    25   1
    29    25    26   1
    30    26    27   1
    31    27    28   1
    32     9    29   1
    33    13    30   1
    34    13    31   1
    35    13    32   1
    36    15    33   1
    37    15    34   1
    38    16    35   1
    39    16    36   1
    40    16    37   1
    41    17    38   1
    42    18    39   1
    43    20    40   1
    44    24    41   1
    45    24    42   1
    46    25    43   1
    47    25    44   1
    48    27    45   1
    49    27    46   1
    50    28    47   1
    51    28    48   1
@<TRIPOS>SUBSTRUCTURE
     1  MOL      1

