@<TRIPOS>MOLECULE
3nox_ligand_043
    48    51
SMALL
GAST_HUCK
****
This file was generated by PARSER (from files_GN.cpp)

@<TRIPOS>ATOM
      1 C1         47.3040   47.4999   32.1474 C.2         1 MOL       0.1404
      2 C2         46.3390   47.6774   33.1038 C.2         1 MOL       0.0782
      3 C3         45.1295   48.2795   32.7076 C.2         1 MOL       0.0387
      4 N4         44.9603   48.7032   31.4583 N.2         1 MOL      -0.2660
      5 N5         47.0754   47.9295   30.8730 N.pl3       1 MOL      -0.1859
      6 C6         45.9257   48.5406   30.5336 C.2         1 MOL       0.1941
      7 N7         45.9323   48.9248   29.2469 N.2         1 MOL      -0.3175
      8 C8         47.1194   48.5544   28.7337 C.2         1 MOL       0.0787
      9 C9         47.8226   47.9105   29.7529 C.2         1 MOL       0.0743
     10 C10        47.5742   48.7602   27.4385 C.2         1 MOL       0.1958
     11 O11        48.1493   47.7853   26.9622 O.2         1 MOL      -0.3941
     12 N12        47.5071   49.9069   26.7346 N.am        1 MOL      -0.2710
     13 C13        43.9912   48.5075   33.5868 C.3         1 MOL      -0.0096
     14 C14        48.5553   46.9358   32.4113 C.ar        1 MOL       0.0400
     15 C15        46.5229   47.2298   34.4995 C.3         1 MOL       0.0036
     16 N16        45.9665   45.8866   34.7028 N.4         1 MOL       0.2296
     17 C17        49.5800   47.7750   32.9087 C.ar        1 MOL      -0.0470
     18 C18        50.8787   47.2772   33.1116 C.ar        1 MOL      -0.0451
     19 C19        51.1744   45.9361   32.8074 C.ar        1 MOL       0.0429
     20 C20        50.1626   45.0922   32.3104 C.ar        1 MOL      -0.0313
     21 C21        48.8549   45.5808   32.1109 C.ar        1 MOL       0.0551
     22 CL22       47.6901   44.5048   31.5026 Cl          1 MOL      -0.0670
     23 CL23       52.7441   45.3460   33.0323 Cl          1 MOL      -0.0685
     24 C24        47.9815   49.9946   25.3592 C.3         1 MOL       0.0564
     25 C25        46.9116   50.6673   24.4598 C.3         1 MOL       0.0680
     26 O26        46.4720   51.9207   25.0220 O.3         1 MOL      -0.3758
     27 C27        45.9839   51.8054   26.3733 C.3         1 MOL       0.0680
     28 C28        47.0707   51.1829   27.2854 C.3         1 MOL       0.0564
     29 H1         48.7692   47.5334   29.6678 H           1 MOL       0.0902
     30 H2         43.1337   48.9226   33.0506 H           1 MOL       0.0451
     31 H3         44.2636   49.2139   34.3721 H           1 MOL       0.0451
     32 H4         43.6729   47.5675   34.0384 H           1 MOL       0.0451
     33 H5         46.0467   47.9120   35.2030 H           1 MOL       0.0958
     34 H6         47.5691   47.2001   34.7996 H           1 MOL       0.0958
     35 H7         46.0042   45.6511   35.6970 H           1 MOL       0.2006
     36 H8         46.5093   45.2036   34.1692 H           1 MOL       0.2006
     37 H9         44.9929   45.8593   34.3972 H           1 MOL       0.2006
     38 H10        49.3920   48.7601   33.1195 H           1 MOL       0.0642
     39 H11        51.6075   47.8993   33.4687 H           1 MOL       0.0629
     40 H12        50.3828   44.1175   32.0898 H           1 MOL       0.0634
     41 H13        48.2287   49.0300   24.9081 H           1 MOL       0.0544
     42 H14        48.8914   50.5998   25.3392 H           1 MOL       0.0544
     43 H15        46.0573   49.9980   24.3310 H           1 MOL       0.0580
     44 H16        47.3390   50.8653   23.4759 H           1 MOL       0.0580
     45 H17        45.0741   51.1972   26.3976 H           1 MOL       0.0580
     46 H18        45.7306   52.8060   26.7319 H           1 MOL       0.0580
     47 H19        47.9285   51.8607   27.3100 H           1 MOL       0.0544
     48 H20        46.6885   51.1367   28.3038 H           1 MOL       0.0544
@<TRIPOS>BOND
     1     1     2   2
     2     1     5   1
     3     1    14   1
     4     2     3   1
     5     2    15   1
     6     3     4   2
     7     3    13   1
     8     4     6   1
     9     5     6   1
    10     5     9   1
    11     6     7   2
    12     7     8   1
    13     8     9   2
    14     8    10   1
    15    10    11   2
    16    10    12  am
    17    12    24   1
    18    12    28   1
    19    14    17  ar
    20    14    21  ar
    21    15    16   1
    22    17    18  ar
    23    18    19  ar
    24    19    20  ar
    25    19    23   1
    26    20    21  ar
    27    21    22   1
    28    24    25   1
    29    25    26   1
    30    26    27   1
    31    27    28   1
    32     9    29   1
    33    13    30   1
    34    13    31   1
    35    13    32   1
    36    15    33   1
    37    15    34   1
    38    16    35   1
    39    16    36   1
    40    16    37   1
    41    17    38   1
    42    18    39   1
    43    20    40   1
    44    24    41   1
    45    24    42   1
    46    25    43   1
    47    25    44   1
    48    27    45   1
    49    27    46   1
    50    28    47   1
    51    28    48   1
@<TRIPOS>SUBSTRUCTURE
     1  MOL      1

