@<TRIPOS>MOLECULE
3nox_ligand_030
    48    51
SMALL
GAST_HUCK
****
This file was generated by PARSER (from files_GN.cpp)

@<TRIPOS>ATOM
      1 C1         54.4715   49.9828   34.3524 C.2         1 MOL       0.1404
      2 C2         55.5011   50.8380   34.6414 C.2         1 MOL       0.0782
      3 C3         55.1703   52.1189   35.1294 C.2         1 MOL       0.0387
      4 N4         53.8994   52.4509   35.3378 N.2         1 MOL      -0.2660
      5 N5         53.1857   50.3782   34.5659 N.pl3       1 MOL      -0.1859
      6 C6         52.8989   51.5908   35.0733 C.2         1 MOL       0.1941
      7 N7         51.5738   51.7559   35.2327 N.2         1 MOL      -0.3175
      8 C8         50.9861   50.6216   34.8110 C.2         1 MOL       0.0787
      9 C9         51.9997   49.7653   34.3796 C.2         1 MOL       0.0743
     10 C10        49.6179   50.3985   34.7247 C.2         1 MOL       0.1958
     11 O11        49.2604   49.9464   33.6425 O.2         1 MOL      -0.3941
     12 N12        48.6978   50.6831   35.6717 N.am        1 MOL      -0.2710
     13 C13        56.1360   53.1777   35.4158 C.3         1 MOL      -0.0096
     14 C14        54.6808   48.6745   33.9021 C.ar        1 MOL       0.0400
     15 C15        56.9241   50.4385   34.5134 C.3         1 MOL       0.0036
     16 N16        57.4744   49.9940   35.7996 N.4         1 MOL       0.2296
     17 C17        54.8035   48.4445   32.5114 C.ar        1 MOL      -0.0470
     18 C18        55.0071   47.1409   32.0145 C.ar        1 MOL      -0.0451
     19 C19        55.0806   46.0556   32.9022 C.ar        1 MOL       0.0429
     20 C20        54.9567   46.2717   34.2854 C.ar        1 MOL      -0.0313
     21 C21        54.7504   47.5722   34.7928 C.ar        1 MOL       0.0551
     22 CL22       54.5965   47.7473   36.4760 Cl          1 MOL      -0.0670
     23 CL23       55.3078   44.4829   32.3039 Cl          1 MOL      -0.0685
     24 C24        49.0587   51.0234   37.0395 C.3         1 MOL       0.0564
     25 C25        48.1009   50.3690   38.0843 C.3         1 MOL       0.0680
     26 O26        46.7083   50.2773   37.7033 O.3         1 MOL      -0.3758
     27 C27        46.3314   50.9896   36.5144 C.3         1 MOL       0.0680
     28 C28        47.2780   50.6099   35.3485 C.3         1 MOL       0.0564
     29 H1         51.8601   48.8228   34.0063 H           1 MOL       0.0902
     30 H2         55.6511   54.0931   35.7774 H           1 MOL       0.0451
     31 H3         56.6866   53.4430   34.5102 H           1 MOL       0.0451
     32 H4         56.8411   52.8594   36.1859 H           1 MOL       0.0451
     33 H5         57.5298   51.2592   34.1324 H           1 MOL       0.0958
     34 H6         57.0857   49.6169   33.8124 H           1 MOL       0.0958
     35 H7         58.4614   49.7366   35.6777 H           1 MOL       0.2006
     36 H8         56.9582   49.1810   36.1470 H           1 MOL       0.2006
     37 H9         57.4105   50.7539   36.4781 H           1 MOL       0.2006
     38 H10        54.7574   49.2209   31.8453 H           1 MOL       0.0642
     39 H11        55.0966   46.9949   31.0042 H           1 MOL       0.0629
     40 H12        55.0110   45.4752   34.9254 H           1 MOL       0.0634
     41 H13        48.9951   52.1093   37.1444 H           1 MOL       0.0544
     42 H14        50.0794   50.7262   37.2969 H           1 MOL       0.0544
     43 H15        48.1599   50.9180   39.0272 H           1 MOL       0.0580
     44 H16        48.4326   49.3467   38.2783 H           1 MOL       0.0580
     45 H17        46.3715   52.0676   36.6976 H           1 MOL       0.0580
     46 H18        45.3002   50.7298   36.2617 H           1 MOL       0.0580
     47 H19        47.0371   49.5843   35.0489 H           1 MOL       0.0544
     48 H20        47.0575   51.2729   34.5080 H           1 MOL       0.0544
@<TRIPOS>BOND
     1     1     2   2
     2     1     5   1
     3     1    14   1
     4     2     3   1
     5     2    15   1
     6     3     4   2
     7     3    13   1
     8     4     6   1
     9     5     6   1
    10     5     9   1
    11     6     7   2
    12     7     8   1
    13     8     9   2
    14     8    10   1
    15    10    11   2
    16    10    12  am
    17    12    24   1
    18    12    28   1
    19    14    17  ar
    20    14    21  ar
    21    15    16   1
    22    17    18  ar
    23    18    19  ar
    24    19    20  ar
    25    19    23   1
    26    20    21  ar
    27    21    22   1
    28    24    25   1
    29    25    26   1
    30    26    27   1
    31    27    28   1
    32     9    29   1
    33    13    30   1
    34    13    31   1
    35    13    32   1
    36    15    33   1
    37    15    34   1
    38    16    35   1
    39    16    36   1
    40    16    37   1
    41    17    38   1
    42    18    39   1
    43    20    40   1
    44    24    41   1
    45    24    42   1
    46    25    43   1
    47    25    44   1
    48    27    45   1
    49    27    46   1
    50    28    47   1
    51    28    48   1
@<TRIPOS>SUBSTRUCTURE
     1  MOL      1

