@<TRIPOS>MOLECULE
3nox_ligand_012
    48    51
SMALL
GAST_HUCK
****
This file was generated by PARSER (from files_GN.cpp)

@<TRIPOS>ATOM
      1 C1         48.0890   50.8150   33.7290 C.2         1 MOL       0.1404
      2 C2         47.9303   50.8386   35.0921 C.2         1 MOL       0.0782
      3 C3         49.0808   51.0425   35.8810 C.2         1 MOL       0.0387
      4 N4         50.2725   51.1833   35.3113 N.2         1 MOL      -0.2660
      5 N5         49.3245   51.0165   33.1890 N.pl3       1 MOL      -0.1859
      6 C6         50.4112   51.1653   33.9717 C.2         1 MOL       0.1941
      7 N7         51.5336   51.3059   33.2483 N.2         1 MOL      -0.3175
      8 C8         51.1529   51.2669   31.9612 C.2         1 MOL       0.0787
      9 C9         49.7729   51.0899   31.9193 C.2         1 MOL       0.0743
     10 C10        52.0007   51.3670   30.8790 C.2         1 MOL       0.1958
     11 O11        51.9095   52.4322   30.2806 O.2         1 MOL      -0.3941
     12 N12        52.8535   50.4026   30.4798 N.am        1 MOL      -0.2710
     13 C13        49.1043   51.1073   37.3384 C.3         1 MOL      -0.0096
     14 C14        47.0463   50.5275   32.8437 C.ar        1 MOL       0.0400
     15 C15        46.6115   50.6547   35.7403 C.3         1 MOL       0.0036
     16 N16        46.0917   51.9127   36.2879 N.4         1 MOL       0.2296
     17 C17        46.6401   49.1805   32.6911 C.ar        1 MOL      -0.0470
     18 C18        45.5787   48.8446   31.8332 C.ar        1 MOL      -0.0451
     19 C19        44.9255   49.8459   31.0934 C.ar        1 MOL       0.0429
     20 C20        45.3427   51.1849   31.2117 C.ar        1 MOL      -0.0313
     21 C21        46.3947   51.5353   32.0843 C.ar        1 MOL       0.0551
     22 CL22       46.8198   53.1772   32.1937 Cl          1 MOL      -0.0670
     23 CL23       43.6373   49.4395   30.0732 Cl          1 MOL      -0.0685
     24 C24        52.8483   49.0544   31.0273 C.3         1 MOL       0.0564
     25 C25        52.5730   48.0448   29.8830 C.3         1 MOL       0.0680
     26 O26        53.5052   48.2281   28.7979 O.3         1 MOL      -0.3758
     27 C27        53.5211   49.5688   28.2662 C.3         1 MOL       0.0680
     28 C28        53.7940   50.6030   29.3875 C.3         1 MOL       0.0564
     29 H1         49.2145   51.0094   31.0681 H           1 MOL       0.0902
     30 H2         50.1189   51.2370   37.7299 H           1 MOL       0.0451
     31 H3         48.7028   50.1872   37.7659 H           1 MOL       0.0451
     32 H4         48.5200   51.9583   37.6859 H           1 MOL       0.0451
     33 H5         46.6735   49.9093   36.5365 H           1 MOL       0.0958
     34 H6         45.8397   50.2935   35.0625 H           1 MOL       0.0958
     35 H7         45.0841   51.8352   36.4356 H           1 MOL       0.2006
     36 H8         46.2749   52.6787   35.6371 H           1 MOL       0.2006
     37 H9         46.5274   52.1169   37.1849 H           1 MOL       0.2006
     38 H10        47.1038   48.4332   33.2174 H           1 MOL       0.0642
     39 H11        45.2864   47.8673   31.7530 H           1 MOL       0.0629
     40 H12        44.8724   51.9086   30.6622 H           1 MOL       0.0634
     41 H13        52.0996   48.8862   31.8025 H           1 MOL       0.0544
     42 H14        53.8240   48.8441   31.4720 H           1 MOL       0.0544
     43 H15        51.5469   48.1602   29.5187 H           1 MOL       0.0580
     44 H16        52.6817   47.0274   30.2622 H           1 MOL       0.0580
     45 H17        52.5695   49.7899   27.7757 H           1 MOL       0.0580
     46 H18        54.3101   49.6285   27.5144 H           1 MOL       0.0580
     47 H19        54.8092   50.4541   29.7658 H           1 MOL       0.0544
     48 H20        53.7637   51.6046   28.9485 H           1 MOL       0.0544
@<TRIPOS>BOND
     1     1     2   2
     2     1     5   1
     3     1    14   1
     4     2     3   1
     5     2    15   1
     6     3     4   2
     7     3    13   1
     8     4     6   1
     9     5     6   1
    10     5     9   1
    11     6     7   2
    12     7     8   1
    13     8     9   2
    14     8    10   1
    15    10    11   2
    16    10    12  am
    17    12    24   1
    18    12    28   1
    19    14    17  ar
    20    14    21  ar
    21    15    16   1
    22    17    18  ar
    23    18    19  ar
    24    19    20  ar
    25    19    23   1
    26    20    21  ar
    27    21    22   1
    28    24    25   1
    29    25    26   1
    30    26    27   1
    31    27    28   1
    32     9    29   1
    33    13    30   1
    34    13    31   1
    35    13    32   1
    36    15    33   1
    37    15    34   1
    38    16    35   1
    39    16    36   1
    40    16    37   1
    41    17    38   1
    42    18    39   1
    43    20    40   1
    44    24    41   1
    45    24    42   1
    46    25    43   1
    47    25    44   1
    48    27    45   1
    49    27    46   1
    50    28    47   1
    51    28    48   1
@<TRIPOS>SUBSTRUCTURE
     1  MOL      1

