@<TRIPOS>MOLECULE
3nq3_ligand_025
    31    30
SMALL
GAST_HUCK
****
This file was generated by PARSER (from files_GN.cpp)

@<TRIPOS>ATOM
      1 C1          8.3988    1.9407   -1.4965 C.2         1 DKA       0.0348
      2 O1          8.1859    0.6086   -1.4975 O.co2       1 DKA      -0.5690
      3 C2          9.7125    2.5008   -1.1190 C.3         1 DKA       0.0002
      4 C3          9.5956    3.5415    0.0222 C.3         1 DKA      -0.0414
      5 C4         10.9680    4.0924    0.5041 C.3         1 DKA      -0.0516
      6 C5         10.8862    5.4866    1.2019 C.3         1 DKA      -0.0530
      7 C6         11.2685    5.5181    2.7073 C.3         1 DKA      -0.0531
      8 C7         10.2051    4.9448    3.6806 C.3         1 DKA      -0.0531
      9 C8          8.8295    5.6748    3.7631 C.3         1 DKA      -0.0533
     10 C9          8.7682    6.9907    4.5901 C.3         1 DKA      -0.0559
     11 C10         9.2560    8.2677    3.8680 C.3         1 DKA      -0.0653
     12 O2          7.3933    2.7565   -1.8986 O.co2       1 DKA      -0.5690
     13 H1         10.1433    2.9743   -2.0043 H           1 DKA       0.0430
     14 H2         10.3771    1.6899   -0.8099 H           1 DKA       0.0430
     15 H3          9.0810    3.0964    0.8766 H           1 DKA       0.0283
     16 H4          8.9795    4.3663   -0.3518 H           1 DKA       0.0283
     17 H5         11.6375    4.1895   -0.3587 H           1 DKA       0.0266
     18 H6         11.4251    3.3555    1.1681 H           1 DKA       0.0266
     19 H7          9.8992    5.9294    1.0694 H           1 DKA       0.0265
     20 H8         11.5581    6.1680    0.6798 H           1 DKA       0.0265
     21 H9         11.4950    6.5439    2.9869 H           1 DKA       0.0265
     22 H10        12.2019    4.9625    2.8398 H           1 DKA       0.0265
     23 H11        10.6364    4.9162    4.6879 H           1 DKA       0.0265
     24 H12        10.0219    3.9064    3.3903 H           1 DKA       0.0265
     25 H13         8.1303    4.9712    4.2323 H           1 DKA       0.0265
     26 H14         8.4195    5.8566    2.7715 H           1 DKA       0.0265
     27 H15         9.3323    6.8660    5.5187 H           1 DKA       0.0263
     28 H16         7.7262    7.1623    4.8658 H           1 DKA       0.0263
     29 H17         8.9971    9.1464    4.4620 H           1 DKA       0.0230
     30 H18         8.7889    8.3615    2.8834 H           1 DKA       0.0230
     31 H19        10.3378    8.2687    3.7515 H           1 DKA       0.0230
@<TRIPOS>BOND
     1     1     2  ar
     2     1     3   1
     3     1    12  ar
     4     3     4   1
     5     4     5   1
     6     5     6   1
     7     6     7   1
     8     7     8   1
     9     8     9   1
    10     9    10   1
    11    10    11   1
    12     3    13   1
    13     3    14   1
    14     4    15   1
    15     4    16   1
    16     5    17   1
    17     5    18   1
    18     6    19   1
    19     6    20   1
    20     7    21   1
    21     7    22   1
    22     8    23   1
    23     8    24   1
    24     9    25   1
    25     9    26   1
    26    10    27   1
    27    10    28   1
    28    11    29   1
    29    11    30   1
    30    11    31   1
@<TRIPOS>SUBSTRUCTURE
     1  DKA      1

