@<TRIPOS>MOLECULE
3nq3_ligand_028
    31    30
SMALL
GAST_HUCK
****
This file was generated by PARSER (from files_GN.cpp)

@<TRIPOS>ATOM
      1 C1          4.7104    2.1070   -3.2993 C.2         1 DKA       0.0348
      2 O1          3.5229    2.7402   -3.5264 O.co2       1 DKA      -0.5690
      3 C2          5.8386    2.8728   -2.7256 C.3         1 DKA       0.0002
      4 C3          5.3682    3.8411   -1.6066 C.3         1 DKA      -0.0414
      5 C4          6.4344    4.9144   -1.2094 C.3         1 DKA      -0.0516
      6 C5          7.0660    4.7116    0.2011 C.3         1 DKA      -0.0530
      7 C6          8.3107    3.7613    0.2429 C.3         1 DKA      -0.0531
      8 C7          8.7187    3.3739    1.7008 C.3         1 DKA      -0.0531
      9 C8         10.2473    3.1106    1.8884 C.3         1 DKA      -0.0533
     10 C9         10.9830    4.1639    2.7673 C.3         1 DKA      -0.0559
     11 C10        11.5572    5.3829    1.9880 C.3         1 DKA      -0.0653
     12 O2          4.8525    0.8254   -3.7123 O.co2       1 DKA      -0.5690
     13 H1          6.2994    3.4433   -3.5356 H           1 DKA       0.0430
     14 H2          6.5850    2.1818   -2.3269 H           1 DKA       0.0430
     15 H3          5.0856    3.2407   -0.7337 H           1 DKA       0.0283
     16 H4          4.4615    4.3607   -1.9504 H           1 DKA       0.0283
     17 H5          5.9437    5.8955   -1.1864 H           1 DKA       0.0266
     18 H6          7.2407    4.9725   -1.9581 H           1 DKA       0.0266
     19 H7          6.2730    4.3793    0.9071 H           1 DKA       0.0265
     20 H8          7.4090    5.7049    0.5513 H           1 DKA       0.0265
     21 H9          9.1457    4.2819   -0.2614 H           1 DKA       0.0265
     22 H10         8.1143    2.8305   -0.3194 H           1 DKA       0.0265
     23 H11         8.1677    2.4582    1.9630 H           1 DKA       0.0265
     24 H12         8.3961    4.1669    2.3960 H           1 DKA       0.0265
     25 H13        10.7328    3.0345    0.9070 H           1 DKA       0.0265
     26 H14        10.3629    2.1229    2.3621 H           1 DKA       0.0265
     27 H15        11.8178    3.6668    3.2778 H           1 DKA       0.0263
     28 H16        10.3012    4.5287    3.5522 H           1 DKA       0.0263
     29 H17        12.0860    6.0321    2.6901 H           1 DKA       0.0230
     30 H18        10.7370    5.9537    1.5259 H           1 DKA       0.0230
     31 H19        12.2538    5.0290    1.2175 H           1 DKA       0.0230
@<TRIPOS>BOND
     1     1     2  ar
     2     1     3   1
     3     1    12  ar
     4     3     4   1
     5     4     5   1
     6     5     6   1
     7     6     7   1
     8     7     8   1
     9     8     9   1
    10     9    10   1
    11    10    11   1
    12     3    13   1
    13     3    14   1
    14     4    15   1
    15     4    16   1
    16     5    17   1
    17     5    18   1
    18     6    19   1
    19     6    20   1
    20     7    21   1
    21     7    22   1
    22     8    23   1
    23     8    24   1
    24     9    25   1
    25     9    26   1
    26    10    27   1
    27    10    28   1
    28    11    29   1
    29    11    30   1
    30    11    31   1
@<TRIPOS>SUBSTRUCTURE
     1  DKA      1

