@<TRIPOS>MOLECULE
3nq3_ligand_011
    31    30
SMALL
GAST_HUCK
****
This file was generated by PARSER (from files_GN.cpp)

@<TRIPOS>ATOM
      1 C1          6.6308    5.1688    4.3797 C.2         1 DKA       0.0348
      2 O1          6.3260    5.4112    3.0827 O.co2       1 DKA      -0.5690
      3 C2          6.9937    6.2699    5.2861 C.3         1 DKA       0.0002
      4 C3          8.1422    7.1824    4.7719 C.3         1 DKA      -0.0414
      5 C4          9.5785    6.5874    4.8107 C.3         1 DKA      -0.0516
      6 C5          9.9335    5.5039    3.7531 C.3         1 DKA      -0.0530
      7 C6         10.0356    6.0473    2.3005 C.3         1 DKA      -0.0531
      8 C7         11.2411    5.5035    1.4835 C.3         1 DKA      -0.0531
      9 C8         11.0064    4.1424    0.7718 C.3         1 DKA      -0.0533
     10 C9         12.0829    3.8783   -0.3184 C.3         1 DKA      -0.0559
     11 C10        11.5613    3.0662   -1.5267 C.3         1 DKA      -0.0653
     12 O2          6.4325    3.9200    4.8566 O.co2       1 DKA      -0.5690
     13 H1          7.2695    5.8639    6.2661 H           1 DKA       0.0430
     14 H2          6.0982    6.8867    5.4207 H           1 DKA       0.0430
     15 H3          8.1443    8.0653    5.4178 H           1 DKA       0.0283
     16 H4          7.9076    7.5402    3.7675 H           1 DKA       0.0283
     17 H5          9.7541    6.1777    5.8041 H           1 DKA       0.0266
     18 H6         10.2844    7.4137    4.6867 H           1 DKA       0.0266
     19 H7          9.2138    4.6866    3.7921 H           1 DKA       0.0265
     20 H8         10.9061    5.0921    4.0386 H           1 DKA       0.0265
     21 H9         10.1446    7.1348    2.3392 H           1 DKA       0.0265
     22 H10         9.1128    5.8302    1.7577 H           1 DKA       0.0265
     23 H11        12.1261    5.4286    2.1263 H           1 DKA       0.0265
     24 H12        11.4657    6.2397    0.7055 H           1 DKA       0.0265
     25 H13        10.0136    4.1510    0.3100 H           1 DKA       0.0265
     26 H14        11.0318    3.3375    1.5086 H           1 DKA       0.0265
     27 H15        12.9271    3.3437    0.1284 H           1 DKA       0.0263
     28 H16        12.4575    4.8341   -0.7058 H           1 DKA       0.0263
     29 H17        12.3773    2.9025   -2.2349 H           1 DKA       0.0230
     30 H18        10.7641    3.6134   -2.0364 H           1 DKA       0.0230
     31 H19        11.1769    2.0956   -1.1999 H           1 DKA       0.0230
@<TRIPOS>BOND
     1     1     2  ar
     2     1     3   1
     3     1    12  ar
     4     3     4   1
     5     4     5   1
     6     5     6   1
     7     6     7   1
     8     7     8   1
     9     8     9   1
    10     9    10   1
    11    10    11   1
    12     3    13   1
    13     3    14   1
    14     4    15   1
    15     4    16   1
    16     5    17   1
    17     5    18   1
    18     6    19   1
    19     6    20   1
    20     7    21   1
    21     7    22   1
    22     8    23   1
    23     8    24   1
    24     9    25   1
    25     9    26   1
    26    10    27   1
    27    10    28   1
    28    11    29   1
    29    11    30   1
    30    11    31   1
@<TRIPOS>SUBSTRUCTURE
     1  DKA      1

