@<TRIPOS>MOLECULE
3nq3_ligand_027
    31    30
SMALL
GAST_HUCK
****
This file was generated by PARSER (from files_GN.cpp)

@<TRIPOS>ATOM
      1 C1          6.0747    1.9267   -2.1259 C.2         1 DKA       0.0348
      2 O1          5.0391    1.8471   -2.9883 O.co2       1 DKA      -0.5690
      3 C2          6.4893    3.2306   -1.5700 C.3         1 DKA       0.0002
      4 C3          7.8909    3.7037   -2.0533 C.3         1 DKA      -0.0414
      5 C4          9.1087    2.8338   -1.6418 C.3         1 DKA      -0.0516
      6 C5          9.3791    2.7058   -0.1231 C.3         1 DKA      -0.0530
      7 C6         10.0005    3.9810    0.4971 C.3         1 DKA      -0.0531
      8 C7         10.2661    3.8368    2.0165 C.3         1 DKA      -0.0531
      9 C8         11.2650    4.8964    2.5508 C.3         1 DKA      -0.0533
     10 C9         11.5428    4.7353    4.0641 C.3         1 DKA      -0.0559
     11 C10        12.1975    5.9880    4.6827 C.3         1 DKA      -0.0653
     12 O2          6.6500    0.7795   -1.7056 O.co2       1 DKA      -0.5690
     13 H1          6.4563    3.1818   -0.4821 H           1 DKA       0.0430
     14 H2          5.7628    3.9836   -1.8811 H           1 DKA       0.0430
     15 H3          8.0475    4.7216   -1.6788 H           1 DKA       0.0283
     16 H4          7.8701    3.7650   -3.1398 H           1 DKA       0.0283
     17 H5          9.9973    3.2460   -2.1211 H           1 DKA       0.0266
     18 H6          8.9694    1.8290   -2.0525 H           1 DKA       0.0266
     19 H7         10.0923    1.8872    0.0242 H           1 DKA       0.0265
     20 H8          8.4669    2.4413    0.4023 H           1 DKA       0.0265
     21 H9          9.3305    4.8371    0.3435 H           1 DKA       0.0265
     22 H10        10.9413    4.1950   -0.0171 H           1 DKA       0.0265
     23 H11        10.6605    2.8408    2.2386 H           1 DKA       0.0265
     24 H12         9.3089    3.9458    2.5509 H           1 DKA       0.0265
     25 H13        10.8630    5.8931    2.3390 H           1 DKA       0.0265
     26 H14        12.2112    4.7947    2.0040 H           1 DKA       0.0265
     27 H15        12.2030    3.8757    4.2175 H           1 DKA       0.0263
     28 H16        10.6092    4.5415    4.5959 H           1 DKA       0.0263
     29 H17        12.3841    5.8121    5.7411 H           1 DKA       0.0230
     30 H18        11.5264    6.8458    4.5854 H           1 DKA       0.0230
     31 H19        13.1376    6.2151    4.1867 H           1 DKA       0.0230
@<TRIPOS>BOND
     1     1     2  ar
     2     1     3   1
     3     1    12  ar
     4     3     4   1
     5     4     5   1
     6     5     6   1
     7     6     7   1
     8     7     8   1
     9     8     9   1
    10     9    10   1
    11    10    11   1
    12     3    13   1
    13     3    14   1
    14     4    15   1
    15     4    16   1
    16     5    17   1
    17     5    18   1
    18     6    19   1
    19     6    20   1
    20     7    21   1
    21     7    22   1
    22     8    23   1
    23     8    24   1
    24     9    25   1
    25     9    26   1
    26    10    27   1
    27    10    28   1
    28    11    29   1
    29    11    30   1
    30    11    31   1
@<TRIPOS>SUBSTRUCTURE
     1  DKA      1

