@<TRIPOS>MOLECULE
3nq3_ligand_005
    31    30
SMALL
GAST_HUCK
****
This file was generated by PARSER (from files_GN.cpp)

@<TRIPOS>ATOM
      1 C1          8.3294    8.6393    5.0001 C.2         1 DKA       0.0348
      2 O1          8.5182    9.4453    3.9272 O.co2       1 DKA      -0.5690
      3 C2          8.9346    7.2946    5.1019 C.3         1 DKA       0.0002
      4 C3         10.1070    7.0314    4.1205 C.3         1 DKA      -0.0414
      5 C4         10.4464    5.5197    3.9616 C.3         1 DKA      -0.0516
      6 C5         11.3913    5.2317    2.7642 C.3         1 DKA      -0.0530
      7 C6         10.7465    5.3524    1.3454 C.3         1 DKA      -0.0531
      8 C7         10.1255    4.0407    0.7855 C.3         1 DKA      -0.0531
      9 C8         11.1727    2.8965    0.5892 C.3         1 DKA      -0.0533
     10 C9         11.1182    2.1546   -0.7684 C.3         1 DKA      -0.0559
     11 C10        11.5143    3.0388   -1.9747 C.3         1 DKA      -0.0653
     12 O2          7.4778    9.0524    5.9691 O.co2       1 DKA      -0.5690
     13 H1          8.1477    6.5602    4.9238 H           1 DKA       0.0430
     14 H2          9.2913    7.1514    6.1265 H           1 DKA       0.0430
     15 H3         10.9935    7.5617    4.4815 H           1 DKA       0.0283
     16 H4          9.8375    7.4443    3.1471 H           1 DKA       0.0283
     17 H5          9.5270    4.9434    3.8506 H           1 DKA       0.0266
     18 H6         10.9372    5.1814    4.8800 H           1 DKA       0.0266
     19 H7         11.8163    4.2349    2.8896 H           1 DKA       0.0265
     20 H8         12.2301    5.9267    2.8209 H           1 DKA       0.0265
     21 H9         11.5163    5.6906    0.6462 H           1 DKA       0.0265
     22 H10         9.9722    6.1222    1.3522 H           1 DKA       0.0265
     23 H11         9.6445    4.2762   -0.1684 H           1 DKA       0.0265
     24 H12         9.3315    3.6989    1.4535 H           1 DKA       0.0265
     25 H13        11.0227    2.1630    1.3815 H           1 DKA       0.0265
     26 H14        12.1878    3.2798    0.7130 H           1 DKA       0.0265
     27 H15        10.1142    1.7618   -0.9367 H           1 DKA       0.0263
     28 H16        11.8109    1.3084   -0.7321 H           1 DKA       0.0263
     29 H17        11.5532    2.4434   -2.8894 H           1 DKA       0.0230
     30 H18        12.5005    3.4834   -1.8220 H           1 DKA       0.0230
     31 H19        10.7854    3.8417   -2.1188 H           1 DKA       0.0230
@<TRIPOS>BOND
     1     1     2  ar
     2     1     3   1
     3     1    12  ar
     4     3     4   1
     5     4     5   1
     6     5     6   1
     7     6     7   1
     8     7     8   1
     9     8     9   1
    10     9    10   1
    11    10    11   1
    12     3    13   1
    13     3    14   1
    14     4    15   1
    15     4    16   1
    16     5    17   1
    17     5    18   1
    18     6    19   1
    19     6    20   1
    20     7    21   1
    21     7    22   1
    22     8    23   1
    23     8    24   1
    24     9    25   1
    25     9    26   1
    26    10    27   1
    27    10    28   1
    28    11    29   1
    29    11    30   1
    30    11    31   1
@<TRIPOS>SUBSTRUCTURE
     1  DKA      1

