@<TRIPOS>MOLECULE
3nq3_ligand_018
    31    30
SMALL
GAST_HUCK
****
This file was generated by PARSER (from files_GN.cpp)

@<TRIPOS>ATOM
      1 C1          5.9875    3.8127   -0.4267 C.2         1 DKA       0.0348
      2 O1          4.6927    3.8489   -0.8206 O.co2       1 DKA      -0.5690
      3 C2          6.7904    5.0493   -0.3596 C.3         1 DKA       0.0002
      4 C3          7.1128    5.5260    1.0846 C.3         1 DKA      -0.0414
      5 C4          7.9088    4.5277    1.9714 C.3         1 DKA      -0.0516
      6 C5          9.4073    4.3353    1.6030 C.3         1 DKA      -0.0530
      7 C6         10.3556    5.5010    2.0429 C.3         1 DKA      -0.0531
      8 C7         11.7064    5.0331    2.6466 C.3         1 DKA      -0.0531
      9 C8         11.5899    4.3459    4.0467 C.3         1 DKA      -0.0533
     10 C9         11.9548    5.2310    5.2728 C.3         1 DKA      -0.0559
     11 C10        11.0355    6.4537    5.4946 C.3         1 DKA      -0.0653
     12 O2          6.6008    2.6040   -0.3692 O.co2       1 DKA      -0.5690
     13 H1          6.2353    5.8511   -0.8589 H           1 DKA       0.0430
     14 H2          7.7151    4.9061   -0.9246 H           1 DKA       0.0430
     15 H3          6.1676    5.7396    1.5891 H           1 DKA       0.0283
     16 H4          7.6723    6.4617    1.0236 H           1 DKA       0.0283
     17 H5          7.4185    3.5489    1.9477 H           1 DKA       0.0266
     18 H6          7.8576    4.8656    3.0150 H           1 DKA       0.0266
     19 H7          9.5122    4.1784    0.5326 H           1 DKA       0.0265
     20 H8          9.7345    3.4070    2.0613 H           1 DKA       0.0265
     21 H9          9.8582    6.1444    2.7688 H           1 DKA       0.0265
     22 H10        10.5662    6.1266    1.1726 H           1 DKA       0.0265
     23 H11        12.3756    5.8931    2.7237 H           1 DKA       0.0265
     24 H12        12.1655    4.3386    1.9424 H           1 DKA       0.0265
     25 H13        12.2623    3.4817    4.0615 H           1 DKA       0.0265
     26 H14        10.5807    3.9589    4.2020 H           1 DKA       0.0265
     27 H15        12.9876    5.5764    5.1617 H           1 DKA       0.0263
     28 H16        11.9107    4.5984    6.1708 H           1 DKA       0.0263
     29 H17        11.3054    6.9421    6.4343 H           1 DKA       0.0230
     30 H18         9.9892    6.1346    5.5522 H           1 DKA       0.0230
     31 H19        11.1546    7.1720    4.6764 H           1 DKA       0.0230
@<TRIPOS>BOND
     1     1     2  ar
     2     1     3   1
     3     1    12  ar
     4     3     4   1
     5     4     5   1
     6     5     6   1
     7     6     7   1
     8     7     8   1
     9     8     9   1
    10     9    10   1
    11    10    11   1
    12     3    13   1
    13     3    14   1
    14     4    15   1
    15     4    16   1
    16     5    17   1
    17     5    18   1
    18     6    19   1
    19     6    20   1
    20     7    21   1
    21     7    22   1
    22     8    23   1
    23     8    24   1
    24     9    25   1
    25     9    26   1
    26    10    27   1
    27    10    28   1
    28    11    29   1
    29    11    30   1
    30    11    31   1
@<TRIPOS>SUBSTRUCTURE
     1  DKA      1

