@<TRIPOS>MOLECULE
3nq3_ligand_013
    31    30
SMALL
GAST_HUCK
****
This file was generated by PARSER (from files_GN.cpp)

@<TRIPOS>ATOM
      1 C1          7.1845    4.3517   -2.0341 C.2         1 DKA       0.0348
      2 O1          6.2610    5.2723   -1.6673 O.co2       1 DKA      -0.5690
      3 C2          8.0291    3.7390   -0.9842 C.3         1 DKA       0.0002
      4 C3          8.9478    2.5875   -1.5011 C.3         1 DKA      -0.0414
      5 C4          9.9249    1.9909   -0.4412 C.3         1 DKA      -0.0516
      6 C5         11.3752    2.5520   -0.4339 C.3         1 DKA      -0.0530
      7 C6         11.6454    3.8417    0.3748 C.3         1 DKA      -0.0531
      8 C7         10.8670    3.9462    1.7272 C.3         1 DKA      -0.0531
      9 C8         11.3475    5.1321    2.6150 C.3         1 DKA      -0.0533
     10 C9         11.4117    4.7756    4.1319 C.3         1 DKA      -0.0559
     11 C10        12.0846    5.8881    4.9758 C.3         1 DKA      -0.0653
     12 O2          7.2767    4.0156   -3.3484 O.co2       1 DKA      -0.5690
     13 H1          7.3668    3.3260   -0.2012 H           1 DKA       0.0430
     14 H2          8.6535    4.5203   -0.5354 H           1 DKA       0.0430
     15 H3          9.5146    2.9329   -2.3840 H           1 DKA       0.0283
     16 H4          8.2933    1.7688   -1.8300 H           1 DKA       0.0283
     17 H5         10.0325    0.9170   -0.6670 H           1 DKA       0.0266
     18 H6          9.5061    2.0802    0.5681 H           1 DKA       0.0266
     19 H7         11.6847    2.7339   -1.4668 H           1 DKA       0.0265
     20 H8         12.0382    1.7783   -0.0383 H           1 DKA       0.0265
     21 H9         11.4155    4.7239   -0.2394 H           1 DKA       0.0265
     22 H10        12.7225    3.8766    0.5981 H           1 DKA       0.0265
     23 H11        10.9998    3.0069    2.2918 H           1 DKA       0.0265
     24 H12         9.7967    4.0688    1.5184 H           1 DKA       0.0265
     25 H13        10.6746    5.9890    2.4794 H           1 DKA       0.0265
     26 H14        12.3539    5.4303    2.3081 H           1 DKA       0.0265
     27 H15        11.9887    3.8482    4.2609 H           1 DKA       0.0263
     28 H16        10.3958    4.6084    4.5216 H           1 DKA       0.0263
     29 H17        12.2121    5.5470    6.0164 H           1 DKA       0.0230
     30 H18        11.4704    6.7984    4.9801 H           1 DKA       0.0230
     31 H19        13.0736    6.1225    4.5615 H           1 DKA       0.0230
@<TRIPOS>BOND
     1     1     2  ar
     2     1     3   1
     3     1    12  ar
     4     3     4   1
     5     4     5   1
     6     5     6   1
     7     6     7   1
     8     7     8   1
     9     8     9   1
    10     9    10   1
    11    10    11   1
    12     3    13   1
    13     3    14   1
    14     4    15   1
    15     4    16   1
    16     5    17   1
    17     5    18   1
    18     6    19   1
    19     6    20   1
    20     7    21   1
    21     7    22   1
    22     8    23   1
    23     8    24   1
    24     9    25   1
    25     9    26   1
    26    10    27   1
    27    10    28   1
    28    11    29   1
    29    11    30   1
    30    11    31   1
@<TRIPOS>SUBSTRUCTURE
     1  DKA      1

