@<TRIPOS>MOLECULE
3nq3_ligand_019
    31    30
SMALL
GAST_HUCK
****
This file was generated by PARSER (from files_GN.cpp)

@<TRIPOS>ATOM
      1 C1         19.2616   -5.7895   -5.4803 C.2         1 DKA       0.0348
      2 O1         18.9650   -6.7786   -6.3642 O.co2       1 DKA      -0.5690
      3 C2         20.3191   -5.9913   -4.4636 C.3         1 DKA       0.0002
      4 C3         19.7597   -6.1625   -3.0205 C.3         1 DKA      -0.0414
      5 C4         18.3997   -5.4489   -2.7350 C.3         1 DKA      -0.0516
      6 C5         18.1750   -5.0235   -1.2523 C.3         1 DKA      -0.0530
      7 C6         17.6599   -6.1423   -0.2849 C.3         1 DKA      -0.0531
      8 C7         16.1552   -6.5056   -0.4581 C.3         1 DKA      -0.0531
      9 C8         15.1994   -5.6604    0.4404 C.3         1 DKA      -0.0533
     10 C9         13.7165   -5.7260   -0.0244 C.3         1 DKA      -0.0559
     11 C10        12.8281   -4.6774    0.7009 C.3         1 DKA      -0.0653
     12 O2         18.8313   -4.5293   -5.7373 O.co2       1 DKA      -0.5690
     13 H1         21.0062   -5.1382   -4.4810 H           1 DKA       0.0430
     14 H2         20.8977   -6.8908   -4.7047 H           1 DKA       0.0430
     15 H3         20.5097   -5.7639   -2.3240 H           1 DKA       0.0283
     16 H4         19.6404   -7.2348   -2.8102 H           1 DKA       0.0283
     17 H5         17.5798   -6.1172   -3.0332 H           1 DKA       0.0266
     18 H6         18.3284   -4.5530   -3.3574 H           1 DKA       0.0266
     19 H7         17.4670   -4.1903   -1.2347 H           1 DKA       0.0265
     20 H8         19.1230   -4.6366   -0.8574 H           1 DKA       0.0265
     21 H9         17.8235   -5.8198    0.7524 H           1 DKA       0.0265
     22 H10        18.2602   -7.0486   -0.4359 H           1 DKA       0.0265
     23 H11        16.0237   -7.5635   -0.1820 H           1 DKA       0.0265
     24 H12        15.8725   -6.3904   -1.5117 H           1 DKA       0.0265
     25 H13        15.5156   -4.6085    0.4442 H           1 DKA       0.0265
     26 H14        15.2593   -6.0475    1.4686 H           1 DKA       0.0265
     27 H15        13.3090   -6.7308    0.1764 H           1 DKA       0.0263
     28 H16        13.6670   -5.5383   -1.1079 H           1 DKA       0.0263
     29 H17        11.8058   -4.7276    0.3032 H           1 DKA       0.0230
     30 H18        13.2271   -3.6669    0.5382 H           1 DKA       0.0230
     31 H19        12.8002   -4.8862    1.7821 H           1 DKA       0.0230
@<TRIPOS>BOND
     1     1     2  ar
     2     1     3   1
     3     1    12  ar
     4     3     4   1
     5     4     5   1
     6     5     6   1
     7     6     7   1
     8     7     8   1
     9     8     9   1
    10     9    10   1
    11    10    11   1
    12     3    13   1
    13     3    14   1
    14     4    15   1
    15     4    16   1
    16     5    17   1
    17     5    18   1
    18     6    19   1
    19     6    20   1
    20     7    21   1
    21     7    22   1
    22     8    23   1
    23     8    24   1
    24     9    25   1
    25     9    26   1
    26    10    27   1
    27    10    28   1
    28    11    29   1
    29    11    30   1
    30    11    31   1
@<TRIPOS>SUBSTRUCTURE
     1  DKA      1

