@<TRIPOS>MOLECULE
3nq3_ligand_000
    31    30
SMALL
GAST_HUCK
****
This file was generated by PARSER (from files_GN.cpp)

@<TRIPOS>ATOM
      1 C1         11.5342    2.9399   -2.3612 C.2         1 DKA       0.0348
      2 O1         12.3204    2.8478   -3.4696 O.co2       1 DKA      -0.5690
      3 C2         12.1412    2.8987   -1.0145 C.3         1 DKA       0.0002
      4 C3         11.1647    2.3743    0.0925 C.3         1 DKA      -0.0414
      5 C4         10.8943    3.3937    1.2475 C.3         1 DKA      -0.0516
      6 C5          9.5436    4.1721    1.0958 C.3         1 DKA      -0.0530
      7 C6          9.2640    5.2969    2.1358 C.3         1 DKA      -0.0531
      8 C7         10.3554    6.4015    2.2664 C.3         1 DKA      -0.0531
      9 C8         11.2158    6.4346    3.5666 C.3         1 DKA      -0.0533
     10 C9         10.7014    5.5536    4.7541 C.3         1 DKA      -0.0559
     11 C10        11.5716    5.6750    6.0213 C.3         1 DKA      -0.0653
     12 O2         10.2644    3.3854   -2.5167 O.co2       1 DKA      -0.5690
     13 H1         12.4983    3.9109   -0.7835 H           1 DKA       0.0430
     14 H2         13.0284    2.2515   -1.0505 H           1 DKA       0.0430
     15 H3         11.6128    1.4884    0.5432 H           1 DKA       0.0283
     16 H4         10.2088    2.0578   -0.3417 H           1 DKA       0.0283
     17 H5         11.7414    4.0865    1.3048 H           1 DKA       0.0266
     18 H6         10.8613    2.8307    2.1966 H           1 DKA       0.0266
     19 H7          8.7275    3.4311    1.2225 H           1 DKA       0.0265
     20 H8          9.4583    4.5827    0.0680 H           1 DKA       0.0265
     21 H9          9.0201    4.8506    3.1098 H           1 DKA       0.0265
     22 H10         8.3642    5.8126    1.7741 H           1 DKA       0.0265
     23 H11         9.8435    7.3696    2.2268 H           1 DKA       0.0265
     24 H12        11.0434    6.3753    1.4091 H           1 DKA       0.0265
     25 H13        11.2780    7.4739    3.9395 H           1 DKA       0.0265
     26 H14        12.2489    6.1294    3.3388 H           1 DKA       0.0265
     27 H15        10.7170    4.5027    4.4575 H           1 DKA       0.0263
     28 H16         9.6779    5.8351    5.0079 H           1 DKA       0.0263
     29 H17        11.2369    4.9707    6.7840 H           1 DKA       0.0230
     30 H18        11.4843    6.6892    6.4166 H           1 DKA       0.0230
     31 H19        12.6145    5.4646    5.7881 H           1 DKA       0.0230
@<TRIPOS>BOND
     1     1     2  ar
     2     1     3   1
     3     1    12  ar
     4     3     4   1
     5     4     5   1
     6     5     6   1
     7     6     7   1
     8     7     8   1
     9     8     9   1
    10     9    10   1
    11    10    11   1
    12     3    13   1
    13     3    14   1
    14     4    15   1
    15     4    16   1
    16     5    17   1
    17     5    18   1
    18     6    19   1
    19     6    20   1
    20     7    21   1
    21     7    22   1
    22     8    23   1
    23     8    24   1
    24     9    25   1
    25     9    26   1
    26    10    27   1
    27    10    28   1
    28    11    29   1
    29    11    30   1
    30    11    31   1
@<TRIPOS>SUBSTRUCTURE
     1  DKA      1

