@<TRIPOS>MOLECULE
3nq3_ligand_022
    31    30
SMALL
GAST_HUCK
****
This file was generated by PARSER (from files_GN.cpp)

@<TRIPOS>ATOM
      1 C1          5.8142    1.5620    3.1860 C.2         1 DKA       0.0348
      2 O1          6.9078    0.7782    3.2052 O.co2       1 DKA      -0.5690
      3 C2          5.6389    2.6461    4.1701 C.3         1 DKA       0.0002
      4 C3          5.6105    4.0624    3.5273 C.3         1 DKA      -0.0414
      5 C4          7.0005    4.7013    3.2589 C.3         1 DKA      -0.0516
      6 C5          7.7936    4.1108    2.0594 C.3         1 DKA      -0.0530
      7 C6          9.1562    4.8080    1.7852 C.3         1 DKA      -0.0531
      8 C7         10.2792    4.4296    2.7905 C.3         1 DKA      -0.0531
      9 C8         11.4866    5.4215    2.8073 C.3         1 DKA      -0.0533
     10 C9         12.0425    5.7613    4.2176 C.3         1 DKA      -0.0559
     11 C10        11.0814    6.6001    5.1003 C.3         1 DKA      -0.0653
     12 O2          4.8329    1.2898    2.2929 O.co2       1 DKA      -0.5690
     13 H1          6.4333    2.5897    4.9232 H           1 DKA       0.0430
     14 H2          4.6960    2.4685    4.6940 H           1 DKA       0.0430
     15 H3          5.0834    4.7280    4.2154 H           1 DKA       0.0283
     16 H4          5.0309    4.0502    2.5993 H           1 DKA       0.0283
     17 H5          7.5921    4.6208    4.1749 H           1 DKA       0.0266
     18 H6          6.8405    5.7663    3.0686 H           1 DKA       0.0266
     19 H7          7.1765    4.2011    1.1603 H           1 DKA       0.0265
     20 H8          7.9856    3.0486    2.2260 H           1 DKA       0.0265
     21 H9          8.9937    5.8917    1.7992 H           1 DKA       0.0265
     22 H10         9.4970    4.5461    0.7769 H           1 DKA       0.0265
     23 H11        10.6487    3.4210    2.5669 H           1 DKA       0.0265
     24 H12         9.8422    4.3713    3.7865 H           1 DKA       0.0265
     25 H13        11.2249    6.3721    2.3223 H           1 DKA       0.0265
     26 H14        12.2930    4.9892    2.2035 H           1 DKA       0.0265
     27 H15        12.9682    6.3332    4.0939 H           1 DKA       0.0263
     28 H16        12.3010    4.8354    4.7405 H           1 DKA       0.0263
     29 H17        11.5270    6.7610    6.0842 H           1 DKA       0.0230
     30 H18        10.1222    6.0971    5.2504 H           1 DKA       0.0230
     31 H19        10.8941    7.5701    4.6317 H           1 DKA       0.0230
@<TRIPOS>BOND
     1     1     2  ar
     2     1     3   1
     3     1    12  ar
     4     3     4   1
     5     4     5   1
     6     5     6   1
     7     6     7   1
     8     7     8   1
     9     8     9   1
    10     9    10   1
    11    10    11   1
    12     3    13   1
    13     3    14   1
    14     4    15   1
    15     4    16   1
    16     5    17   1
    17     5    18   1
    18     6    19   1
    19     6    20   1
    20     7    21   1
    21     7    22   1
    22     8    23   1
    23     8    24   1
    24     9    25   1
    25     9    26   1
    26    10    27   1
    27    10    28   1
    28    11    29   1
    29    11    30   1
    30    11    31   1
@<TRIPOS>SUBSTRUCTURE
     1  DKA      1

