@<TRIPOS>MOLECULE
3nq3_ligand_026
    31    30
SMALL
GAST_HUCK
****
This file was generated by PARSER (from files_GN.cpp)

@<TRIPOS>ATOM
      1 C1          8.4745   -1.8654    2.2831 C.2         1 DKA       0.0348
      2 O1          8.0681   -3.1513    2.2114 O.co2       1 DKA      -0.5690
      3 C2          9.0302   -1.2098    1.0809 C.3         1 DKA       0.0002
      4 C3          8.9084    0.3412    1.0755 C.3         1 DKA      -0.0414
      5 C4          9.5435    0.9938   -0.1821 C.3         1 DKA      -0.0516
      6 C5          9.5167    2.5491   -0.2040 C.3         1 DKA      -0.0530
      7 C6         10.6815    3.2921    0.5166 C.3         1 DKA      -0.0531
      8 C7         10.5224    3.4835    2.0505 C.3         1 DKA      -0.0531
      9 C8         11.2976    4.7295    2.5799 C.3         1 DKA      -0.0533
     10 C9         11.5871    4.6522    4.1052 C.3         1 DKA      -0.0559
     11 C10        12.1639    5.9650    4.6925 C.3         1 DKA      -0.0653
     12 O2          8.2586   -1.1947    3.4386 O.co2       1 DKA      -0.5690
     13 H1          8.4996   -1.6085    0.2096 H           1 DKA       0.0430
     14 H2         10.0845   -1.4917    0.9964 H           1 DKA       0.0430
     15 H3          9.3897    0.7415    1.9693 H           1 DKA       0.0283
     16 H4          7.8483    0.6009    1.1056 H           1 DKA       0.0283
     17 H5          8.9757    0.6435   -1.0531 H           1 DKA       0.0266
     18 H6         10.5746    0.6412   -0.3044 H           1 DKA       0.0266
     19 H7          8.5645    2.9148    0.1896 H           1 DKA       0.0265
     20 H8          9.5576    2.8634   -1.2534 H           1 DKA       0.0265
     21 H9         10.7509    4.2840    0.0690 H           1 DKA       0.0265
     22 H10        11.6165    2.7703    0.3135 H           1 DKA       0.0265
     23 H11        10.8856    2.5959    2.5689 H           1 DKA       0.0265
     24 H12         9.4626    3.6130    2.2858 H           1 DKA       0.0265
     25 H13        10.7014    5.6244    2.3743 H           1 DKA       0.0265
     26 H14        12.2434    4.8242    2.0457 H           1 DKA       0.0265
     27 H15        12.2946    3.8384    4.2957 H           1 DKA       0.0263
     28 H16        10.6601    4.4279    4.6317 H           1 DKA       0.0263
     29 H17        12.3418    5.8358    5.7632 H           1 DKA       0.0230
     30 H18        11.4570    6.7871    4.5566 H           1 DKA       0.0230
     31 H19        13.1054    6.2235    4.2090 H           1 DKA       0.0230
@<TRIPOS>BOND
     1     1     2  ar
     2     1     3   1
     3     1    12  ar
     4     3     4   1
     5     4     5   1
     6     5     6   1
     7     6     7   1
     8     7     8   1
     9     8     9   1
    10     9    10   1
    11    10    11   1
    12     3    13   1
    13     3    14   1
    14     4    15   1
    15     4    16   1
    16     5    17   1
    17     5    18   1
    18     6    19   1
    19     6    20   1
    20     7    21   1
    21     7    22   1
    22     8    23   1
    23     8    24   1
    24     9    25   1
    25     9    26   1
    26    10    27   1
    27    10    28   1
    28    11    29   1
    29    11    30   1
    30    11    31   1
@<TRIPOS>SUBSTRUCTURE
     1  DKA      1

