@<TRIPOS>MOLECULE
3nq3_ligand_007
    31    30
SMALL
GAST_HUCK
****
This file was generated by PARSER (from files_GN.cpp)

@<TRIPOS>ATOM
      1 C1          7.7961    2.4837   -1.6106 C.2         1 DKA       0.0348
      2 O1          6.5132    2.5354   -2.0441 O.co2       1 DKA      -0.5690
      3 C2          8.5876    3.7191   -1.4798 C.3         1 DKA       0.0002
      4 C3          9.2839    3.8946   -0.0893 C.3         1 DKA      -0.0414
      5 C4         10.8129    3.5873   -0.0511 C.3         1 DKA      -0.0516
      6 C5         11.6646    4.5797    0.8018 C.3         1 DKA      -0.0530
      7 C6         11.2940    4.6827    2.3193 C.3         1 DKA      -0.0531
      8 C7         10.6772    6.0335    2.8163 C.3         1 DKA      -0.0531
      9 C8         11.3621    6.6656    4.0689 C.3         1 DKA      -0.0533
     10 C9         10.9534    6.1021    5.4624 C.3         1 DKA      -0.0559
     11 C10        11.6013    4.7583    5.8632 C.3         1 DKA      -0.0653
     12 O2          8.3695    1.2725   -1.4455 O.co2       1 DKA      -0.5690
     13 H1          7.9246    4.5738   -1.6418 H           1 DKA       0.0430
     14 H2          9.3208    3.7352   -2.2897 H           1 DKA       0.0430
     15 H3          8.7783    3.2743    0.6572 H           1 DKA       0.0283
     16 H4          9.1267    4.9286    0.2238 H           1 DKA       0.0283
     17 H5         11.2249    3.6108   -1.0646 H           1 DKA       0.0266
     18 H6         10.9663    2.5712    0.3272 H           1 DKA       0.0266
     19 H7         11.6361    5.5644    0.3260 H           1 DKA       0.0265
     20 H8         12.7028    4.2429    0.7245 H           1 DKA       0.0265
     21 H9         12.2014    4.4795    2.8913 H           1 DKA       0.0265
     22 H10        10.5992    3.8788    2.5748 H           1 DKA       0.0265
     23 H11         9.6139    5.8884    3.0315 H           1 DKA       0.0265
     24 H12        10.7282    6.7792    2.0172 H           1 DKA       0.0265
     25 H13        11.1041    7.7292    4.0733 H           1 DKA       0.0265
     26 H14        12.4486    6.6103    3.9614 H           1 DKA       0.0265
     27 H15         9.8665    5.9964    5.5073 H           1 DKA       0.0263
     28 H16        11.2421    6.8372    6.2200 H           1 DKA       0.0263
     29 H17        11.3092    4.5023    6.8847 H           1 DKA       0.0230
     30 H18        12.6879    4.8291    5.8220 H           1 DKA       0.0230
     31 H19        11.2729    3.9590    5.2012 H           1 DKA       0.0230
@<TRIPOS>BOND
     1     1     2  ar
     2     1     3   1
     3     1    12  ar
     4     3     4   1
     5     4     5   1
     6     5     6   1
     7     6     7   1
     8     7     8   1
     9     8     9   1
    10     9    10   1
    11    10    11   1
    12     3    13   1
    13     3    14   1
    14     4    15   1
    15     4    16   1
    16     5    17   1
    17     5    18   1
    18     6    19   1
    19     6    20   1
    20     7    21   1
    21     7    22   1
    22     8    23   1
    23     8    24   1
    24     9    25   1
    25     9    26   1
    26    10    27   1
    27    10    28   1
    28    11    29   1
    29    11    30   1
    30    11    31   1
@<TRIPOS>SUBSTRUCTURE
     1  DKA      1

