@<TRIPOS>MOLECULE
3nq3_ligand_003
    31    30
SMALL
GAST_HUCK
****
This file was generated by PARSER (from files_GN.cpp)

@<TRIPOS>ATOM
      1 C1          9.7525    1.2976   -0.1562 C.2         1 DKA       0.0348
      2 O1          9.7504   -0.0573   -0.2875 O.co2       1 DKA      -0.5690
      3 C2         10.9722    1.9966    0.3186 C.3         1 DKA       0.0002
      4 C3         11.3838    3.2024   -0.5840 C.3         1 DKA      -0.0414
      5 C4         12.0294    4.3808    0.2010 C.3         1 DKA      -0.0516
      6 C5         11.0181    5.2289    1.0430 C.3         1 DKA      -0.0530
      7 C6         11.2351    5.1727    2.5804 C.3         1 DKA      -0.0531
      8 C7         10.1085    5.9223    3.3728 C.3         1 DKA      -0.0531
      9 C8         10.6024    6.8330    4.5344 C.3         1 DKA      -0.0533
     10 C9         10.8855    6.1365    5.9008 C.3         1 DKA      -0.0559
     11 C10        11.8386    4.9181    5.8467 C.3         1 DKA      -0.0653
     12 O2          8.5691    1.9561   -0.1615 O.co2       1 DKA      -0.5690
     13 H1         11.8012    1.2782    0.3534 H           1 DKA       0.0430
     14 H2         10.7827    2.3164    1.3525 H           1 DKA       0.0430
     15 H3         10.5113    3.5846   -1.1304 H           1 DKA       0.0283
     16 H4         12.0959    2.8300   -1.3338 H           1 DKA       0.0283
     17 H5         12.4974    5.0313   -0.5391 H           1 DKA       0.0266
     18 H6         12.8342    3.9896    0.8219 H           1 DKA       0.0266
     19 H7          9.9864    4.9244    0.8207 H           1 DKA       0.0265
     20 H8         11.1206    6.2729    0.7421 H           1 DKA       0.0265
     21 H9         12.2109    5.6183    2.7981 H           1 DKA       0.0265
     22 H10        11.2634    4.1235    2.8999 H           1 DKA       0.0265
     23 H11         9.3893    5.1907    3.7623 H           1 DKA       0.0265
     24 H12         9.5527    6.5704    2.6851 H           1 DKA       0.0265
     25 H13         9.8234    7.5839    4.7270 H           1 DKA       0.0265
     26 H14        11.4963    7.3860    4.2225 H           1 DKA       0.0265
     27 H15         9.9313    5.8222    6.3464 H           1 DKA       0.0263
     28 H16        11.3301    6.8864    6.5687 H           1 DKA       0.0263
     29 H17        12.1214    4.6377    6.8698 H           1 DKA       0.0230
     30 H18        12.7424    5.1675    5.2778 H           1 DKA       0.0230
     31 H19        11.3369    4.0654    5.3819 H           1 DKA       0.0230
@<TRIPOS>BOND
     1     1     2  ar
     2     1     3   1
     3     1    12  ar
     4     3     4   1
     5     4     5   1
     6     5     6   1
     7     6     7   1
     8     7     8   1
     9     8     9   1
    10     9    10   1
    11    10    11   1
    12     3    13   1
    13     3    14   1
    14     4    15   1
    15     4    16   1
    16     5    17   1
    17     5    18   1
    18     6    19   1
    19     6    20   1
    20     7    21   1
    21     7    22   1
    22     8    23   1
    23     8    24   1
    24     9    25   1
    25     9    26   1
    26    10    27   1
    27    10    28   1
    28    11    29   1
    29    11    30   1
    30    11    31   1
@<TRIPOS>SUBSTRUCTURE
     1  DKA      1

