@<TRIPOS>MOLECULE
3nq3_ligand_014
    31    30
SMALL
GAST_HUCK
****
This file was generated by PARSER (from files_GN.cpp)

@<TRIPOS>ATOM
      1 C1          4.8958    5.1758   -0.1582 C.2         1 DKA       0.0348
      2 O1          4.5802    4.1994    0.7234 O.co2       1 DKA      -0.5690
      3 C2          5.8959    4.9237   -1.2170 C.3         1 DKA       0.0002
      4 C3          7.2448    4.3912   -0.6532 C.3         1 DKA      -0.0414
      5 C4          8.1565    3.7465   -1.7379 C.3         1 DKA      -0.0516
      6 C5          9.4430    3.0762   -1.1708 C.3         1 DKA      -0.0530
      7 C6          9.2528    2.0068   -0.0371 C.3         1 DKA      -0.0531
      8 C7         10.0202    2.3350    1.2789 C.3         1 DKA      -0.0531
      9 C8          9.6381    3.6992    1.9263 C.3         1 DKA      -0.0533
     10 C9         10.6881    4.2227    2.9502 C.3         1 DKA      -0.0559
     11 C10        11.6032    5.3227    2.3530 C.3         1 DKA      -0.0653
     12 O2          4.1666    6.3106   -0.1425 O.co2       1 DKA      -0.5690
     13 H1          6.0901    5.8522   -1.7622 H           1 DKA       0.0430
     14 H2          5.4631    4.2041   -1.9180 H           1 DKA       0.0430
     15 H3          7.0485    3.6408    0.1192 H           1 DKA       0.0283
     16 H4          7.7789    5.2290   -0.1894 H           1 DKA       0.0283
     17 H5          8.4733    4.5305   -2.4391 H           1 DKA       0.0266
     18 H6          7.5816    3.0041   -2.3051 H           1 DKA       0.0266
     19 H7         10.1059    3.8773   -0.8292 H           1 DKA       0.0265
     20 H8          9.9509    2.5925   -2.0128 H           1 DKA       0.0265
     21 H9          9.6426    1.0503   -0.4080 H           1 DKA       0.0265
     22 H10         8.1972    1.8412    0.1939 H           1 DKA       0.0265
     23 H11        11.0940    2.2962    1.0724 H           1 DKA       0.0265
     24 H12         9.7965    1.5483    2.0057 H           1 DKA       0.0265
     25 H13         8.6838    3.5774    2.4500 H           1 DKA       0.0265
     26 H14         9.4927    4.4633    1.1573 H           1 DKA       0.0265
     27 H15        11.3034    3.3946    3.3225 H           1 DKA       0.0263
     28 H16        10.1643    4.6562    3.8099 H           1 DKA       0.0263
     29 H17        12.3670    5.6190    3.0769 H           1 DKA       0.0230
     30 H18        11.0048    6.2040    2.0991 H           1 DKA       0.0230
     31 H19        12.0994    4.9641    1.4488 H           1 DKA       0.0230
@<TRIPOS>BOND
     1     1     2  ar
     2     1     3   1
     3     1    12  ar
     4     3     4   1
     5     4     5   1
     6     5     6   1
     7     6     7   1
     8     7     8   1
     9     8     9   1
    10     9    10   1
    11    10    11   1
    12     3    13   1
    13     3    14   1
    14     4    15   1
    15     4    16   1
    16     5    17   1
    17     5    18   1
    18     6    19   1
    19     6    20   1
    20     7    21   1
    21     7    22   1
    22     8    23   1
    23     8    24   1
    24     9    25   1
    25     9    26   1
    26    10    27   1
    27    10    28   1
    28    11    29   1
    29    11    30   1
    30    11    31   1
@<TRIPOS>SUBSTRUCTURE
     1  DKA      1

