@<TRIPOS>MOLECULE
3nq3_ligand_023
    31    30
SMALL
GAST_HUCK
****
This file was generated by PARSER (from files_GN.cpp)

@<TRIPOS>ATOM
      1 C1         11.3915    1.9010   -0.7547 C.2         1 DKA       0.0348
      2 O1         12.4981    1.2011   -0.3949 O.co2       1 DKA      -0.5690
      3 C2         11.5072    3.3350   -1.1019 C.3         1 DKA       0.0002
      4 C3         11.8061    4.2287    0.1392 C.3         1 DKA      -0.0414
      5 C4         10.6042    4.3175    1.1466 C.3         1 DKA      -0.0516
      6 C5         11.0411    4.5854    2.6270 C.3         1 DKA      -0.0530
      7 C6         11.2853    6.1022    2.9724 C.3         1 DKA      -0.0531
      8 C7         10.5472    6.6002    4.2582 C.3         1 DKA      -0.0531
      9 C8          8.9889    6.4647    4.1996 C.3         1 DKA      -0.0533
     10 C9          8.2273    7.3369    5.2464 C.3         1 DKA      -0.0559
     11 C10         7.9919    8.7957    4.7770 C.3         1 DKA      -0.0653
     12 O2         10.1680    1.3695   -0.5078 O.co2       1 DKA      -0.5690
     13 H1         10.5783    3.6763   -1.5891 H           1 DKA       0.0430
     14 H2         12.3290    3.4512   -1.8226 H           1 DKA       0.0430
     15 H3         12.0330    5.2472   -0.2114 H           1 DKA       0.0283
     16 H4         12.7059    3.8394    0.6462 H           1 DKA       0.0283
     17 H5         10.0380    3.3715    1.1516 H           1 DKA       0.0266
     18 H6          9.9091    5.1087    0.8124 H           1 DKA       0.0266
     19 H7         11.9607    4.0281    2.8638 H           1 DKA       0.0265
     20 H8         10.2588    4.1699    3.2871 H           1 DKA       0.0265
     21 H9         10.9905    6.7583    2.1311 H           1 DKA       0.0265
     22 H10        12.3661    6.2534    3.1299 H           1 DKA       0.0265
     23 H11        10.8207    7.6586    4.3981 H           1 DKA       0.0265
     24 H12        10.9262    6.0327    5.1239 H           1 DKA       0.0265
     25 H13         8.7263    5.4150    4.3785 H           1 DKA       0.0265
     26 H14         8.6416    6.7158    3.1877 H           1 DKA       0.0265
     27 H15         8.7838    7.3553    6.1948 H           1 DKA       0.0263
     28 H16         7.2506    6.8723    5.4433 H           1 DKA       0.0263
     29 H17         7.5242    9.3636    5.5856 H           1 DKA       0.0230
     30 H18         7.3377    8.8035    3.9017 H           1 DKA       0.0230
     31 H19         8.9486    9.2649    4.5202 H           1 DKA       0.0230
@<TRIPOS>BOND
     1     1     2  ar
     2     1     3   1
     3     1    12  ar
     4     3     4   1
     5     4     5   1
     6     5     6   1
     7     6     7   1
     8     7     8   1
     9     8     9   1
    10     9    10   1
    11    10    11   1
    12     3    13   1
    13     3    14   1
    14     4    15   1
    15     4    16   1
    16     5    17   1
    17     5    18   1
    18     6    19   1
    19     6    20   1
    20     7    21   1
    21     7    22   1
    22     8    23   1
    23     8    24   1
    24     9    25   1
    25     9    26   1
    26    10    27   1
    27    10    28   1
    28    11    29   1
    29    11    30   1
    30    11    31   1
@<TRIPOS>SUBSTRUCTURE
     1  DKA      1

