@<TRIPOS>MOLECULE
3nq3_ligand_021
    31    30
SMALL
GAST_HUCK
****
This file was generated by PARSER (from files_GN.cpp)

@<TRIPOS>ATOM
      1 C1         11.8993    3.4288   -0.7508 C.2         1 DKA       0.0348
      2 O1         12.8720    2.5014   -0.5947 O.co2       1 DKA      -0.5690
      3 C2         10.7347    3.1318   -1.6009 C.3         1 DKA       0.0002
      4 C3          9.3474    3.1260   -0.8933 C.3         1 DKA      -0.0414
      5 C4          9.1584    2.1724    0.3200 C.3         1 DKA      -0.0516
      6 C5         10.0734    2.3919    1.5543 C.3         1 DKA      -0.0530
      7 C6         10.0483    3.8009    2.2177 C.3         1 DKA      -0.0531
      8 C7         11.2191    4.0081    3.2286 C.3         1 DKA      -0.0531
      9 C8         10.9110    4.9156    4.4629 C.3         1 DKA      -0.0533
     10 C9         11.4720    6.3690    4.4435 C.3         1 DKA      -0.0559
     11 C10        10.6069    7.3874    3.6709 C.3         1 DKA      -0.0653
     12 O2         12.0589    4.6263   -0.1462 O.co2       1 DKA      -0.5690
     13 H1         10.8757    2.1636   -2.0822 H           1 DKA       0.0430
     14 H2         10.7027    3.8793   -2.3968 H           1 DKA       0.0430
     15 H3          8.6209    2.8089   -1.6466 H           1 DKA       0.0283
     16 H4          9.0720    4.1420   -0.6088 H           1 DKA       0.0283
     17 H5          9.2998    1.1467   -0.0287 H           1 DKA       0.0266
     18 H6          8.1200    2.2542    0.6554 H           1 DKA       0.0266
     19 H7         11.0943    2.1247    1.2831 H           1 DKA       0.0265
     20 H8          9.7611    1.6678    2.3122 H           1 DKA       0.0265
     21 H9          9.0866    3.9157    2.7225 H           1 DKA       0.0265
     22 H10        10.1119    4.5747    1.4580 H           1 DKA       0.0265
     23 H11        12.0767    4.4072    2.6863 H           1 DKA       0.0265
     24 H12        11.5139    3.0262    3.6142 H           1 DKA       0.0265
     25 H13        11.3447    4.4275    5.3454 H           1 DKA       0.0265
     26 H14         9.8343    4.9600    4.6298 H           1 DKA       0.0265
     27 H15        12.4908    6.3660    4.0390 H           1 DKA       0.0263
     28 H16        11.5340    6.7124    5.4808 H           1 DKA       0.0263
     29 H17        11.0222    8.3876    3.8003 H           1 DKA       0.0230
     30 H18         9.5889    7.3848    4.0657 H           1 DKA       0.0230
     31 H19        10.5870    7.1514    2.6095 H           1 DKA       0.0230
@<TRIPOS>BOND
     1     1     2  ar
     2     1     3   1
     3     1    12  ar
     4     3     4   1
     5     4     5   1
     6     5     6   1
     7     6     7   1
     8     7     8   1
     9     8     9   1
    10     9    10   1
    11    10    11   1
    12     3    13   1
    13     3    14   1
    14     4    15   1
    15     4    16   1
    16     5    17   1
    17     5    18   1
    18     6    19   1
    19     6    20   1
    20     7    21   1
    21     7    22   1
    22     8    23   1
    23     8    24   1
    24     9    25   1
    25     9    26   1
    26    10    27   1
    27    10    28   1
    28    11    29   1
    29    11    30   1
    30    11    31   1
@<TRIPOS>SUBSTRUCTURE
     1  DKA      1

