@<TRIPOS>MOLECULE
3nq3_ligand_004
    31    30
SMALL
GAST_HUCK
****
This file was generated by PARSER (from files_GN.cpp)

@<TRIPOS>ATOM
      1 C1          3.9582   -2.7241    1.7478 C.2         1 DKA       0.0348
      2 O1          3.8159   -1.9101    0.6764 O.co2       1 DKA      -0.5690
      3 C2          5.2954   -3.0013    2.3119 C.3         1 DKA       0.0002
      4 C3          6.3806   -3.1422    1.2118 C.3         1 DKA      -0.0414
      5 C4          7.8186   -3.2029    1.7918 C.3         1 DKA      -0.0516
      6 C5          8.8945   -3.0565    0.6869 C.3         1 DKA      -0.0530
      7 C6         10.2957   -3.5706    1.1201 C.3         1 DKA      -0.0531
      8 C7         11.3067   -3.5714   -0.0545 C.3         1 DKA      -0.0531
      9 C8         12.7868   -3.5578    0.3957 C.3         1 DKA      -0.0533
     10 C9         13.7526   -3.7191   -0.8052 C.3         1 DKA      -0.0559
     11 C10        15.2326   -3.4444   -0.4471 C.3         1 DKA      -0.0653
     12 O2          2.8368   -3.1413    2.3908 O.co2       1 DKA      -0.5690
     13 H1          5.2636   -3.9108    2.9116 H           1 DKA       0.0430
     14 H2          5.5518   -2.1638    2.9683 H           1 DKA       0.0430
     15 H3          6.3078   -2.2900    0.5252 H           1 DKA       0.0283
     16 H4          6.1836   -4.0567    0.6349 H           1 DKA       0.0283
     17 H5          7.9478   -4.1544    2.3016 H           1 DKA       0.0266
     18 H6          7.9507   -2.4021    2.5160 H           1 DKA       0.0266
     19 H7          8.9816   -1.9965    0.4185 H           1 DKA       0.0265
     20 H8          8.5773   -3.6001   -0.2108 H           1 DKA       0.0265
     21 H9         10.2018   -4.5864    1.5166 H           1 DKA       0.0265
     22 H10        10.6699   -2.9270    1.9276 H           1 DKA       0.0265
     23 H11        11.1326   -2.6899   -0.6783 H           1 DKA       0.0265
     24 H12        11.1157   -4.4575   -0.6692 H           1 DKA       0.0265
     25 H13        12.9662   -4.3706    1.1032 H           1 DKA       0.0265
     26 H14        12.9894   -2.6138    0.9036 H           1 DKA       0.0265
     27 H15        13.4694   -3.0241   -1.6050 H           1 DKA       0.0263
     28 H16        13.6746   -4.7356   -1.1989 H           1 DKA       0.0263
     29 H17        15.8640   -3.6461   -1.3085 H           1 DKA       0.0230
     30 H18        15.5476   -4.0817    0.3804 H           1 DKA       0.0230
     31 H19        15.3582   -2.3977   -0.1652 H           1 DKA       0.0230
@<TRIPOS>BOND
     1     1     2  ar
     2     1     3   1
     3     1    12  ar
     4     3     4   1
     5     4     5   1
     6     5     6   1
     7     6     7   1
     8     7     8   1
     9     8     9   1
    10     9    10   1
    11    10    11   1
    12     3    13   1
    13     3    14   1
    14     4    15   1
    15     4    16   1
    16     5    17   1
    17     5    18   1
    18     6    19   1
    19     6    20   1
    20     7    21   1
    21     7    22   1
    22     8    23   1
    23     8    24   1
    24     9    25   1
    25     9    26   1
    26    10    27   1
    27    10    28   1
    28    11    29   1
    29    11    30   1
    30    11    31   1
@<TRIPOS>SUBSTRUCTURE
     1  DKA      1

