@<TRIPOS>MOLECULE
3nq3_ligand_006
    31    30
SMALL
GAST_HUCK
****
This file was generated by PARSER (from files_GN.cpp)

@<TRIPOS>ATOM
      1 C1         11.4387    0.9911   -0.1480 C.2         1 DKA       0.0348
      2 O1         11.9575   -0.2404   -0.3597 O.co2       1 DKA      -0.5690
      3 C2         10.0277    1.1216    0.2611 C.3         1 DKA       0.0002
      4 C3          9.7190    2.3405    1.1810 C.3         1 DKA      -0.0414
      5 C4          9.5011    3.6728    0.4040 C.3         1 DKA      -0.0516
      6 C5          9.2643    4.9283    1.2938 C.3         1 DKA      -0.0530
      7 C6         10.5233    5.7835    1.6394 C.3         1 DKA      -0.0531
      8 C7         11.6032    5.1281    2.5391 C.3         1 DKA      -0.0531
      9 C8         11.1560    4.7811    3.9913 C.3         1 DKA      -0.0533
     10 C9         11.8945    5.6151    5.0774 C.3         1 DKA      -0.0559
     11 C10        11.5267    5.1983    6.5118 C.3         1 DKA      -0.0653
     12 O2         12.1382    2.0472   -0.6273 O.co2       1 DKA      -0.5690
     13 H1          9.7531    0.2132    0.8057 H           1 DKA       0.0430
     14 H2          9.3991    1.1645   -0.6341 H           1 DKA       0.0430
     15 H3         10.5154    2.4464    1.9185 H           1 DKA       0.0283
     16 H4          8.8003    2.1231    1.7305 H           1 DKA       0.0283
     17 H5          8.6120    3.5307   -0.2200 H           1 DKA       0.0266
     18 H6         10.3369    3.8608   -0.2710 H           1 DKA       0.0266
     19 H7          8.7381    4.6496    2.2080 H           1 DKA       0.0265
     20 H8          8.5921    5.5962    0.7420 H           1 DKA       0.0265
     21 H9         10.1885    6.7031    2.1256 H           1 DKA       0.0265
     22 H10        11.0027    6.0737    0.6989 H           1 DKA       0.0265
     23 H11        12.4414    5.8248    2.5741 H           1 DKA       0.0265
     24 H12        11.9858    4.2354    2.0410 H           1 DKA       0.0265
     25 H13        11.3514    3.7191    4.1720 H           1 DKA       0.0265
     26 H14        10.0831    4.9396    4.1114 H           1 DKA       0.0265
     27 H15        11.6532    6.6736    4.9411 H           1 DKA       0.0263
     28 H16        12.9727    5.4958    4.9463 H           1 DKA       0.0263
     29 H17        12.1469    5.7456    7.2208 H           1 DKA       0.0230
     30 H18        11.6918    4.1306    6.6593 H           1 DKA       0.0230
     31 H19        10.4790    5.4297    6.7140 H           1 DKA       0.0230
@<TRIPOS>BOND
     1     1     2  ar
     2     1     3   1
     3     1    12  ar
     4     3     4   1
     5     4     5   1
     6     5     6   1
     7     6     7   1
     8     7     8   1
     9     8     9   1
    10     9    10   1
    11    10    11   1
    12     3    13   1
    13     3    14   1
    14     4    15   1
    15     4    16   1
    16     5    17   1
    17     5    18   1
    18     6    19   1
    19     6    20   1
    20     7    21   1
    21     7    22   1
    22     8    23   1
    23     8    24   1
    24     9    25   1
    25     9    26   1
    26    10    27   1
    27    10    28   1
    28    11    29   1
    29    11    30   1
    30    11    31   1
@<TRIPOS>SUBSTRUCTURE
     1  DKA      1

