@<TRIPOS>MOLECULE
3nq3_ligand_020
    31    30
SMALL
GAST_HUCK
****
This file was generated by PARSER (from files_GN.cpp)

@<TRIPOS>ATOM
      1 C1          3.4213   -1.9264    1.5598 C.2         1 DKA       0.0348
      2 O1          2.5990   -2.7264    2.2743 O.co2       1 DKA      -0.5690
      3 C2          4.2589   -2.4902    0.4846 C.3         1 DKA       0.0002
      4 C3          5.2387   -3.5910    0.9813 C.3         1 DKA      -0.0414
      5 C4          6.5431   -3.0492    1.6371 C.3         1 DKA      -0.0516
      6 C5          7.5695   -2.4408    0.6312 C.3         1 DKA      -0.0530
      7 C6          8.6084   -1.5046    1.3057 C.3         1 DKA      -0.0531
      8 C7          9.3673   -0.5892    0.3010 C.3         1 DKA      -0.0531
      9 C8          9.4193    0.8919    0.7660 C.3         1 DKA      -0.0533
     10 C9         10.6397    1.6621    0.1980 C.3         1 DKA      -0.0559
     11 C10        10.8889    3.0070    0.9167 C.3         1 DKA      -0.0653
     12 O2          3.4062   -0.5968    1.8034 O.co2       1 DKA      -0.5690
     13 H1          4.8175   -1.6878    0.0006 H           1 DKA       0.0430
     14 H2          3.5946   -2.9177   -0.2696 H           1 DKA       0.0430
     15 H3          5.5054   -4.2331    0.1383 H           1 DKA       0.0283
     16 H4          4.7130   -4.2215    1.7047 H           1 DKA       0.0283
     17 H5          7.0333   -3.8723    2.1654 H           1 DKA       0.0266
     18 H6          6.2669   -2.3115    2.3948 H           1 DKA       0.0266
     19 H7          7.0478   -1.8631   -0.1334 H           1 DKA       0.0265
     20 H8          8.0918   -3.2556    0.1210 H           1 DKA       0.0265
     21 H9          9.3373   -2.1082    1.8537 H           1 DKA       0.0265
     22 H10         8.0768   -0.8804    2.0294 H           1 DKA       0.0265
     23 H11         8.8785   -0.6229   -0.6765 H           1 DKA       0.0265
     24 H12        10.3847   -0.9717    0.1794 H           1 DKA       0.0265
     25 H13         9.4503    0.9262    1.8578 H           1 DKA       0.0265
     26 H14         8.5031    1.3930    0.4386 H           1 DKA       0.0265
     27 H15        10.4790    1.8622   -0.8650 H           1 DKA       0.0263
     28 H16        11.5355    1.0439    0.2961 H           1 DKA       0.0263
     29 H17        11.7818    3.4848    0.5083 H           1 DKA       0.0230
     30 H18        11.0386    2.8464    1.9862 H           1 DKA       0.0230
     31 H19        10.0394    3.6781    0.7743 H           1 DKA       0.0230
@<TRIPOS>BOND
     1     1     2  ar
     2     1     3   1
     3     1    12  ar
     4     3     4   1
     5     4     5   1
     6     5     6   1
     7     6     7   1
     8     7     8   1
     9     8     9   1
    10     9    10   1
    11    10    11   1
    12     3    13   1
    13     3    14   1
    14     4    15   1
    15     4    16   1
    16     5    17   1
    17     5    18   1
    18     6    19   1
    19     6    20   1
    20     7    21   1
    21     7    22   1
    22     8    23   1
    23     8    24   1
    24     9    25   1
    25     9    26   1
    26    10    27   1
    27    10    28   1
    28    11    29   1
    29    11    30   1
    30    11    31   1
@<TRIPOS>SUBSTRUCTURE
     1  DKA      1

