@<TRIPOS>MOLECULE
3nq3_ligand_002
    31    30
SMALL
GAST_HUCK
****
This file was generated by PARSER (from files_GN.cpp)

@<TRIPOS>ATOM
      1 C1         10.5759    7.2437    4.9460 C.2         1 DKA       0.0348
      2 O1          9.2638    7.4906    4.7537 O.co2       1 DKA      -0.5690
      3 C2         11.0009    6.1884    5.8852 C.3         1 DKA       0.0002
      4 C3         11.8415    5.0282    5.2713 C.3         1 DKA      -0.0414
      5 C4         11.3759    4.3379    3.9497 C.3         1 DKA      -0.0516
      6 C5         10.0162    4.7696    3.3199 C.3         1 DKA      -0.0530
      7 C6          9.5876    3.9801    2.0612 C.3         1 DKA      -0.0531
      8 C7         10.1611    4.4974    0.7003 C.3         1 DKA      -0.0531
      9 C8         11.4394    3.8081    0.1405 C.3         1 DKA      -0.0533
     10 C9         11.3085    2.2716   -0.0097 C.3         1 DKA      -0.0559
     11 C10        12.4637    1.6349   -0.8128 C.3         1 DKA      -0.0653
     12 O2         11.4322    7.6852    3.9840 O.co2       1 DKA      -0.5690
     13 H1         10.1293    5.7812    6.4084 H           1 DKA       0.0430
     14 H2         11.6127    6.6824    6.6396 H           1 DKA       0.0430
     15 H3         11.9180    4.2569    6.0416 H           1 DKA       0.0283
     16 H4         12.8595    5.4046    5.1221 H           1 DKA       0.0283
     17 H5         11.3226    3.2608    4.1246 H           1 DKA       0.0266
     18 H6         12.1584    4.4917    3.2094 H           1 DKA       0.0266
     19 H7         10.0293    5.8159    3.0400 H           1 DKA       0.0265
     20 H8          9.2433    4.6427    4.0894 H           1 DKA       0.0265
     21 H9          8.4981    4.0652    1.9970 H           1 DKA       0.0265
     22 H10         9.8073    2.9241    2.2017 H           1 DKA       0.0265
     23 H11        10.3753    5.5693    0.7765 H           1 DKA       0.0265
     24 H12         9.3768    4.3957   -0.0609 H           1 DKA       0.0265
     25 H13        12.2962    4.0430    0.7677 H           1 DKA       0.0265
     26 H14        11.6408    4.2366   -0.8451 H           1 DKA       0.0265
     27 H15        10.3707    2.0293   -0.5182 H           1 DKA       0.0263
     28 H16        11.2812    1.8023    0.9774 H           1 DKA       0.0263
     29 H17        12.3512    0.5502   -0.8026 H           1 DKA       0.0230
     30 H18        13.4285    1.8885   -0.3747 H           1 DKA       0.0230
     31 H19        12.4441    1.9810   -1.8470 H           1 DKA       0.0230
@<TRIPOS>BOND
     1     1     2  ar
     2     1     3   1
     3     1    12  ar
     4     3     4   1
     5     4     5   1
     6     5     6   1
     7     6     7   1
     8     7     8   1
     9     8     9   1
    10     9    10   1
    11    10    11   1
    12     3    13   1
    13     3    14   1
    14     4    15   1
    15     4    16   1
    16     5    17   1
    17     5    18   1
    18     6    19   1
    19     6    20   1
    20     7    21   1
    21     7    22   1
    22     8    23   1
    23     8    24   1
    24     9    25   1
    25     9    26   1
    26    10    27   1
    27    10    28   1
    28    11    29   1
    29    11    30   1
    30    11    31   1
@<TRIPOS>SUBSTRUCTURE
     1  DKA      1

