@<TRIPOS>MOLECULE
3nw9_ligand_034
    62    66
SMALL
GAST_HUCK
****
This file was generated by PARSER (from files_GN.cpp)

@<TRIPOS>ATOM
      1 C1         -8.1401   20.9217   16.9298 C.3         1 MOL       0.2034
      2 C2         -6.9533   20.1890   17.5875 C.3         1 MOL       0.1402
      3 O3         -6.9694   20.3141   19.0094 O.3         1 MOL      -0.3834
      4 C4         -5.7517   20.8942   16.9210 C.3         1 MOL       0.1189
      5 O5         -5.2741   21.9812   17.7202 O.3         1 MOL      -0.3846
      6 C6         -6.3486   21.3810   15.5643 C.3         1 MOL       0.1082
      7 C7        -13.5363   18.2060   18.0710 C.3         1 MOL      -0.0106
      8 N8        -11.6873   20.3355   16.8205 N.2         1 MOL      -0.2933
      9 C9        -10.5564   20.9951   16.5236 C.2         1 MOL       0.1151
     10 N10        -9.4656   20.3841   17.0605 N.pl3       1 MOL      -0.1882
     11 C11        -9.9268   19.3048   17.7115 C.ar        1 MOL       0.1683
     12 C12       -11.3138   19.2814   17.5615 C.ar        1 MOL       0.0876
     13 O13        -7.7327   20.9846   15.5465 O.3         1 MOL      -0.3296
     14 C14        -5.6541   20.8931   14.3814 C.2         1 MOL      -0.0658
     15 C15        -5.4203   19.5816   14.1388 C.2         1 MOL      -0.0744
     16 C16        -4.7904   19.0994   12.9223 C.3         1 MOL       0.0471
     17 N17        -3.8494   18.0390   13.1476 N.am        1 MOL      -0.2802
     18 C18        -2.6229   18.1340   13.6419 C.2         1 MOL       0.1986
     19 O19        -2.1932   19.2535   13.9301 O.2         1 MOL      -0.3908
     20 C20        -1.8037   16.9940   13.7797 C.ar        1 MOL       0.0720
     21 C21        -2.3940   15.7042   13.8207 C.ar        1 MOL      -0.0533
     22 C22        -1.6272   14.5272   13.9698 C.ar        1 MOL      -0.0339
     23 C23        -0.2217   14.6489   14.0594 C.ar        1 MOL      -0.0299
     24 C24        -2.2540   13.2616   14.0512 C.ar        1 MOL      -0.0299
     25 C25        -3.1541   12.8123   13.0466 C.ar        1 MOL      -0.0581
     26 C26        -3.7714   11.5598   13.1429 C.ar        1 MOL      -0.0288
     27 C27        -2.0168   12.4105   15.1650 C.ar        1 MOL      -0.0581
     28 C28        -2.6455   11.1657   15.2676 C.ar        1 MOL      -0.0288
     29 C29        -3.5339   10.7292   14.2580 C.ar        1 MOL       0.1316
     30 F30        -4.1054    9.5678   14.3505 F           1 MOL      -0.1840
     31 C31        -0.3847   17.0765   13.9111 C.ar        1 MOL       0.1393
     32 O32         0.2832   18.2520   13.8813 O.3         1 MOL      -0.3302
     33 C33         0.3942   15.9069   14.0259 C.ar        1 MOL       0.1232
     34 O34         1.7510   15.9599   14.0339 O.3         1 MOL      -0.3356
     35 C35       -12.0611   18.2629   18.1741 C.ar        1 MOL       0.0444
     36 N38       -11.3745   17.3175   18.8891 N.ar        1 MOL      -0.2825
     37 C39       -10.0220   17.3496   19.0209 C.ar        1 MOL       0.0619
     38 N40        -9.3042   18.3428   18.4357 N.ar        1 MOL      -0.2608
     39 H1         -8.1809   21.9525   17.3439 H           1 MOL       0.0998
     40 H2         -6.9648   19.1283   17.3125 H           1 MOL       0.0678
     41 H3         -6.2044   19.7717   19.3202 H           1 MOL       0.2101
     42 H4         -4.9243   20.1815   16.7807 H           1 MOL       0.0667
     43 H5         -4.7047   22.5082   17.1257 H           1 MOL       0.2102
     44 H6         -6.3456   22.4792   15.5339 H           1 MOL       0.0749
     45 H7        -13.9307   17.3457   18.6096 H           1 MOL       0.0446
     46 H8        -13.8266   18.1284   17.0230 H           1 MOL       0.0446
     47 H9        -13.9669   19.1128   18.4969 H           1 MOL       0.0446
     48 H10       -10.5350   21.8639   15.9742 H           1 MOL       0.1373
     49 H11        -5.3251   21.5713   13.7251 H           1 MOL       0.0477
     50 H12        -5.7874   18.9128   14.7768 H           1 MOL       0.0470
     51 H13        -4.3053   19.9053   12.3601 H           1 MOL       0.0643
     52 H14        -5.5964   18.6930   12.3063 H           1 MOL       0.0643
     53 H15        -4.1229   17.1699   12.8280 H           1 MOL       0.1864
     54 H16        -3.4082   15.6015   13.7775 H           1 MOL       0.0555
     55 H17         0.3603   13.8036   14.1299 H           1 MOL       0.0543
     56 H18        -3.3425   13.3982   12.2270 H           1 MOL       0.0601
     57 H19        -4.4068   11.2439   12.4027 H           1 MOL       0.0602
     58 H20        -1.3823   12.7120   15.9124 H           1 MOL       0.0601
     59 H21        -2.4650   10.5681   16.0801 H           1 MOL       0.0602
     60 H22        -0.0754   18.7294   13.1000 H           1 MOL       0.2479
     61 H23         1.9958   16.5029   14.8257 H           1 MOL       0.2443
     62 H24        -9.5512   16.6317   19.5642 H           1 MOL       0.1019
@<TRIPOS>BOND
     1     1     2   1
     2    10     1   1
     3     1    13   1
     4     2     3   1
     5     2     4   1
     6     4     5   1
     7     6     4   1
     8    13     6   1
     9     6    14   1
    10    35     7   1
    11     8     9   2
    12    12     8   1
    13    10     9   1
    14    11    10   1
    15    12    11  ar
    16    11    38  ar
    17    12    35  ar
    18    14    15   2
    19    15    16   1
    20    16    17   1
    21    17    18  am
    22    18    19   2
    23    18    20   1
    24    20    21  ar
    25    20    31  ar
    26    21    22  ar
    27    22    23  ar
    28    22    24   1
    29    23    33  ar
    30    24    25  ar
    31    24    27  ar
    32    25    26  ar
    33    26    29  ar
    34    27    28  ar
    35    28    29  ar
    36    29    30   1
    37    31    32   1
    38    31    33  ar
    39    33    34   1
    40    35    36  ar
    41    36    37  ar
    42    37    38  ar
    43     1    39   1
    44     2    40   1
    45     3    41   1
    46     4    42   1
    47     5    43   1
    48     6    44   1
    49     7    45   1
    50     7    46   1
    51     7    47   1
    52     9    48   1
    53    14    49   1
    54    15    50   1
    55    16    51   1
    56    16    52   1
    57    17    53   1
    58    21    54   1
    59    23    55   1
    60    25    56   1
    61    26    57   1
    62    27    58   1
    63    28    59   1
    64    32    60   1
    65    34    61   1
    66    37    62   1
@<TRIPOS>SUBSTRUCTURE
     1  MOL      1

