@<TRIPOS>MOLECULE
3nw9_ligand_036
    62    66
SMALL
GAST_HUCK
****
This file was generated by PARSER (from files_GN.cpp)

@<TRIPOS>ATOM
      1 C1         -6.1224   21.9260   13.0036 C.3         1 MOL       0.2034
      2 C2         -6.6388   20.7876   13.9329 C.3         1 MOL       0.1402
      3 O3         -7.1419   21.3051   15.1733 O.3         1 MOL      -0.3834
      4 C4         -5.3888   19.9096   14.1354 C.3         1 MOL       0.1189
      5 O5         -5.2860   19.3188   15.4330 O.3         1 MOL      -0.3846
      6 C6         -4.2528   20.9113   13.8398 C.3         1 MOL       0.1082
      7 C7         -9.2173   21.8420    7.7189 C.3         1 MOL      -0.0106
      8 N8         -7.9722   23.1961   10.1767 N.2         1 MOL      -0.2933
      9 C9         -7.3291   23.3179   11.3535 C.2         1 MOL       0.1151
     10 N10        -6.8481   22.1291   11.7784 N.pl3       1 MOL      -0.1882
     11 C11        -7.1647   21.2313   10.8274 C.ar        1 MOL       0.1683
     12 C12        -7.8876   21.9056    9.8488 C.ar        1 MOL       0.0876
     13 O13        -4.7506   21.6333   12.7117 O.3         1 MOL      -0.3296
     14 C14        -2.9879   20.2774   13.5220 C.2         1 MOL      -0.0658
     15 C15        -1.8646   20.4558   14.2457 C.2         1 MOL      -0.0744
     16 C16        -0.6222   19.7789   13.9446 C.3         1 MOL       0.0471
     17 N17        -0.7703   18.3549   14.0085 N.am        1 MOL      -0.2802
     18 C18         0.2035   17.4610   13.8990 C.2         1 MOL       0.1986
     19 O19         1.3378   17.8976   13.7503 O.2         1 MOL      -0.3908
     20 C20        -0.0266   16.0755   13.9730 C.ar        1 MOL       0.0720
     21 C21        -1.3441   15.5444   13.9175 C.ar        1 MOL      -0.0533
     22 C22        -1.6178   14.1527   13.9273 C.ar        1 MOL      -0.0339
     23 C23        -0.5188   13.2703   14.0279 C.ar        1 MOL      -0.0299
     24 C24        -2.9624   13.6558   13.8395 C.ar        1 MOL      -0.0299
     25 C25        -3.9199   14.2827   13.0003 C.ar        1 MOL      -0.0581
     26 C26        -5.2478   13.8199   12.9410 C.ar        1 MOL      -0.0288
     27 C27        -3.3796   12.5288   14.5899 C.ar        1 MOL      -0.0581
     28 C28        -4.7034   12.0544   14.5221 C.ar        1 MOL      -0.0288
     29 C29        -5.6390   12.7084   13.7021 C.ar        1 MOL       0.1316
     30 F30        -6.8730   12.2802   13.6475 F           1 MOL      -0.1840
     31 C31         1.0394   15.1394   14.0723 C.ar        1 MOL       0.1393
     32 O32         2.3422   15.5131   14.1151 O.3         1 MOL      -0.3302
     33 C33         0.7955   13.7523   14.1079 C.ar        1 MOL       0.1232
     34 O34         1.8266   12.8747   14.2043 O.3         1 MOL      -0.3356
     35 C35        -8.3923   21.1955    8.7450 C.ar        1 MOL       0.0444
     36 N38        -8.1418   19.8611    8.6859 N.ar        1 MOL      -0.2825
     37 C39        -7.4314   19.2135    9.6426 C.ar        1 MOL       0.0619
     38 N40        -6.9306   19.8994   10.7065 N.ar        1 MOL      -0.2608
     39 H1         -6.1154   22.8640   13.5788 H           1 MOL       0.0998
     40 H2         -7.4387   20.2035   13.4747 H           1 MOL       0.0678
     41 H3         -6.4765   21.9522   15.4900 H           1 MOL       0.2101
     42 H4         -5.3963   19.1068   13.3920 H           1 MOL       0.0667
     43 H5         -4.4982   18.7422   15.3880 H           1 MOL       0.2102
     44 H6         -4.1427   21.6024   14.6894 H           1 MOL       0.0749
     45 H7         -9.4944   21.1461    6.9239 H           1 MOL       0.0446
     46 H8         -8.6855   22.6755    7.2686 H           1 MOL       0.0446
     47 H9        -10.1267   22.2252    8.1828 H           1 MOL       0.0446
     48 H10        -7.2323   24.2136   11.8427 H           1 MOL       0.1373
     49 H11        -2.9611   19.6662   12.7383 H           1 MOL       0.0477
     50 H12        -1.8830   21.0642   15.0330 H           1 MOL       0.0470
     51 H13         0.1336   20.0892   14.6700 H           1 MOL       0.0643
     52 H14        -0.2813   20.0795   12.9518 H           1 MOL       0.0643
     53 H15        -1.6712   18.0264   14.1410 H           1 MOL       0.1864
     54 H16        -2.1357   16.1835   13.8658 H           1 MOL       0.0555
     55 H17        -0.6624   12.2581   14.0170 H           1 MOL       0.0543
     56 H18        -3.6598   15.0744   12.4099 H           1 MOL       0.0601
     57 H19        -5.9228   14.2982   12.3455 H           1 MOL       0.0602
     58 H20        -2.7325   12.0472   15.2191 H           1 MOL       0.0601
     59 H21        -4.9812   11.2417   15.0719 H           1 MOL       0.0602
     60 H22         2.4605   15.9650   14.9717 H           1 MOL       0.2479
     61 H23         1.7292   12.4692   15.0921 H           1 MOL       0.2443
     62 H24        -7.2696   18.2069    9.5560 H           1 MOL       0.1019
@<TRIPOS>BOND
     1     1     2   1
     2    10     1   1
     3     1    13   1
     4     2     3   1
     5     2     4   1
     6     4     5   1
     7     6     4   1
     8    13     6   1
     9     6    14   1
    10    35     7   1
    11     8     9   2
    12    12     8   1
    13    10     9   1
    14    11    10   1
    15    12    11  ar
    16    11    38  ar
    17    12    35  ar
    18    14    15   2
    19    15    16   1
    20    16    17   1
    21    17    18  am
    22    18    19   2
    23    18    20   1
    24    20    21  ar
    25    20    31  ar
    26    21    22  ar
    27    22    23  ar
    28    22    24   1
    29    23    33  ar
    30    24    25  ar
    31    24    27  ar
    32    25    26  ar
    33    26    29  ar
    34    27    28  ar
    35    28    29  ar
    36    29    30   1
    37    31    32   1
    38    31    33  ar
    39    33    34   1
    40    35    36  ar
    41    36    37  ar
    42    37    38  ar
    43     1    39   1
    44     2    40   1
    45     3    41   1
    46     4    42   1
    47     5    43   1
    48     6    44   1
    49     7    45   1
    50     7    46   1
    51     7    47   1
    52     9    48   1
    53    14    49   1
    54    15    50   1
    55    16    51   1
    56    16    52   1
    57    17    53   1
    58    21    54   1
    59    23    55   1
    60    25    56   1
    61    26    57   1
    62    27    58   1
    63    28    59   1
    64    32    60   1
    65    34    61   1
    66    37    62   1
@<TRIPOS>SUBSTRUCTURE
     1  MOL      1

