@<TRIPOS>MOLECULE
3nw9_ligand_060
    62    66
SMALL
GAST_HUCK
****
This file was generated by PARSER (from files_GN.cpp)

@<TRIPOS>ATOM
      1 C1         -7.9547   12.8289   14.9519 C.3         1 MOL       0.2034
      2 C2         -6.8530   11.7534   14.8604 C.3         1 MOL       0.1402
      3 O3         -7.2933   10.4607   15.2795 O.3         1 MOL      -0.3834
      4 C4         -5.7344   12.3487   15.7317 C.3         1 MOL       0.1189
      5 O5         -5.8729   11.9446   17.1029 O.3         1 MOL      -0.3846
      6 C6         -5.9460   13.8818   15.5852 C.3         1 MOL       0.1082
      7 C7        -12.3047   14.2931   10.9011 C.3         1 MOL      -0.0106
      8 N8        -10.0825   12.4328   12.0241 N.2         1 MOL      -0.2933
      9 C9         -9.1144   12.0031   12.8493 C.2         1 MOL       0.1151
     10 N10        -8.9000   12.8742   13.8711 N.pl3       1 MOL      -0.1882
     11 C11        -9.7772   13.8715   13.6813 C.ar        1 MOL       0.1683
     12 C12       -10.5083   13.6025   12.5227 C.ar        1 MOL       0.0876
     13 O13        -7.2546   14.0789   15.0221 O.3         1 MOL      -0.3296
     14 C14        -4.9506   14.5448   14.7662 C.2         1 MOL      -0.0658
     15 C15        -4.8474   14.3528   13.4327 C.2         1 MOL      -0.0744
     16 C16        -3.7588   14.8845   12.6376 C.3         1 MOL       0.0471
     17 N17        -2.4425   14.6474   13.1639 N.am        1 MOL      -0.2802
     18 C18        -1.9600   13.4969   13.6635 C.2         1 MOL       0.1986
     19 O19        -2.7146   12.5242   13.6458 O.2         1 MOL      -0.3908
     20 C20        -0.6636   13.3579   14.1961 C.ar        1 MOL       0.0720
     21 C21        -0.2926   12.1691   14.8930 C.ar        1 MOL      -0.0533
     22 C22         1.0215   11.9277   15.3344 C.ar        1 MOL      -0.0339
     23 C23         2.0171   12.9015   15.0963 C.ar        1 MOL      -0.0299
     24 C24         1.3524   10.7067   15.9680 C.ar        1 MOL      -0.0299
     25 C25         2.0714    9.7061   15.2702 C.ar        1 MOL      -0.0581
     26 C26         2.3880    8.4888   15.8950 C.ar        1 MOL      -0.0288
     27 C27         0.9412   10.4475   17.2958 C.ar        1 MOL      -0.0581
     28 C28         1.2601    9.2298   17.9201 C.ar        1 MOL      -0.0288
     29 C29         1.9863    8.2441   17.2234 C.ar        1 MOL       0.1316
     30 F30         2.2798    7.1142   17.7993 F           1 MOL      -0.1840
     31 C31         0.3559   14.3476   14.0427 C.ar        1 MOL       0.1393
     32 O32         0.1123   15.5334   13.4457 O.3         1 MOL      -0.3302
     33 C33         1.6762   14.1115   14.4705 C.ar        1 MOL       0.1232
     34 O34         2.6334   15.0391   14.2455 O.3         1 MOL      -0.3356
     35 C35       -11.4840   14.5254   12.1013 C.ar        1 MOL       0.0444
     36 N38       -11.6579   15.6504   12.8527 N.ar        1 MOL      -0.2825
     37 C39       -10.9320   15.8966   13.9785 C.ar        1 MOL       0.0619
     38 N40        -9.9951   15.0073   14.3912 N.ar        1 MOL      -0.2608
     39 H1         -8.5062   12.7015   15.8828 H           1 MOL       0.0998
     40 H2         -6.4846   11.6708   13.8356 H           1 MOL       0.0678
     41 H3         -7.6193   10.5709   16.1944 H           1 MOL       0.2101
     42 H4         -4.7462   12.0235   15.3821 H           1 MOL       0.0667
     43 H5         -6.7318   12.3203   17.3907 H           1 MOL       0.2102
     44 H6         -5.9411   14.3429   16.5813 H           1 MOL       0.0749
     45 H7        -13.0232   15.1007   10.7580 H           1 MOL       0.0446
     46 H8        -12.8532   13.3562   11.0093 H           1 MOL       0.0446
     47 H9        -11.6648   14.2352   10.0205 H           1 MOL       0.0446
     48 H10        -8.6062   11.1203   12.7009 H           1 MOL       0.1373
     49 H11        -4.3082   15.1544   15.2109 H           1 MOL       0.0477
     50 H12        -5.5304   13.8054   12.9753 H           1 MOL       0.0470
     51 H13        -3.8991   15.9669   12.5476 H           1 MOL       0.0643
     52 H14        -3.8055   14.4681   11.6286 H           1 MOL       0.0643
     53 H15        -1.8394   15.4087   13.1781 H           1 MOL       0.1864
     54 H16        -1.0017   11.4551   15.0745 H           1 MOL       0.0555
     55 H17         2.9877   12.7365   15.3890 H           1 MOL       0.0543
     56 H18         2.3583    9.8560   14.2964 H           1 MOL       0.0601
     57 H19         2.9165    7.7758   15.3835 H           1 MOL       0.0602
     58 H20         0.4143   11.1532   17.8199 H           1 MOL       0.0601
     59 H21         0.9678    9.0596   18.8871 H           1 MOL       0.0602
     60 H22         0.0724   16.1830   14.1824 H           1 MOL       0.2479
     61 H23         2.6813   15.5742   15.0670 H           1 MOL       0.2443
     62 H24       -11.0949   16.7472   14.5135 H           1 MOL       0.1019
@<TRIPOS>BOND
     1     1     2   1
     2    10     1   1
     3     1    13   1
     4     2     3   1
     5     2     4   1
     6     4     5   1
     7     6     4   1
     8    13     6   1
     9     6    14   1
    10    35     7   1
    11     8     9   2
    12    12     8   1
    13    10     9   1
    14    11    10   1
    15    12    11  ar
    16    11    38  ar
    17    12    35  ar
    18    14    15   2
    19    15    16   1
    20    16    17   1
    21    17    18  am
    22    18    19   2
    23    18    20   1
    24    20    21  ar
    25    20    31  ar
    26    21    22  ar
    27    22    23  ar
    28    22    24   1
    29    23    33  ar
    30    24    25  ar
    31    24    27  ar
    32    25    26  ar
    33    26    29  ar
    34    27    28  ar
    35    28    29  ar
    36    29    30   1
    37    31    32   1
    38    31    33  ar
    39    33    34   1
    40    35    36  ar
    41    36    37  ar
    42    37    38  ar
    43     1    39   1
    44     2    40   1
    45     3    41   1
    46     4    42   1
    47     5    43   1
    48     6    44   1
    49     7    45   1
    50     7    46   1
    51     7    47   1
    52     9    48   1
    53    14    49   1
    54    15    50   1
    55    16    51   1
    56    16    52   1
    57    17    53   1
    58    21    54   1
    59    23    55   1
    60    25    56   1
    61    26    57   1
    62    27    58   1
    63    28    59   1
    64    32    60   1
    65    34    61   1
    66    37    62   1
@<TRIPOS>SUBSTRUCTURE
     1  MOL      1

