@<TRIPOS>MOLECULE
3nw9_ligand_031
    62    66
SMALL
GAST_HUCK
****
This file was generated by PARSER (from files_GN.cpp)

@<TRIPOS>ATOM
      1 C1         -5.2904   15.6628   19.7163 C.3         1 MOL       0.2034
      2 C2         -4.8890   17.1124   19.3669 C.3         1 MOL       0.1402
      3 O3         -5.7196   18.0805   20.0138 O.3         1 MOL      -0.3834
      4 C4         -4.9944   17.1497   17.8216 C.3         1 MOL       0.1189
      5 O5         -6.0436   17.9801   17.3251 O.3         1 MOL      -0.3846
      6 C6         -5.2496   15.6739   17.4098 C.3         1 MOL       0.1082
      7 C7         -1.7468   13.2636   24.1071 C.3         1 MOL      -0.0106
      8 N8         -4.4373   14.2011   22.9084 N.2         1 MOL      -0.2933
      9 C9         -5.3049   14.7087   22.0146 C.2         1 MOL       0.1151
     10 N10        -4.6710   15.1181   20.8929 N.pl3       1 MOL      -0.1882
     11 C11        -3.3613   14.8637   21.0835 C.ar        1 MOL       0.1683
     12 C12        -3.2266   14.2904   22.3473 C.ar        1 MOL       0.0876
     13 O13        -4.9182   14.8903   18.5647 O.3         1 MOL      -0.3296
     14 C14        -4.5246   15.1987   16.2443 C.2         1 MOL      -0.0658
     15 C15        -4.4978   15.8513   15.0681 C.2         1 MOL      -0.0744
     16 C16        -3.9286   15.2974   13.8563 C.3         1 MOL       0.0471
     17 N17        -2.5595   14.9203   14.0587 N.am        1 MOL      -0.2802
     18 C18        -2.0325   13.7064   13.9220 C.2         1 MOL       0.1986
     19 O19        -2.7279   12.7756   13.5272 O.2         1 MOL      -0.3908
     20 C20        -0.7131   13.4605   14.2908 C.ar        1 MOL       0.0720
     21 C21        -0.3723   12.2254   14.8993 C.ar        1 MOL      -0.0533
     22 C22         0.9559   11.9266   15.2662 C.ar        1 MOL      -0.0339
     23 C23         1.9657   12.8826   15.0232 C.ar        1 MOL      -0.0299
     24 C24         1.2813   10.6755   15.8381 C.ar        1 MOL      -0.0299
     25 C25         0.7611   10.2866   17.0950 C.ar        1 MOL      -0.0581
     26 C26         1.1074    9.0456   17.6593 C.ar        1 MOL      -0.0288
     27 C27         2.1381    9.7877   15.1496 C.ar        1 MOL      -0.0581
     28 C28         2.4785    8.5418   15.7114 C.ar        1 MOL      -0.0288
     29 C29         1.9671    8.1709   16.9669 C.ar        1 MOL       0.1316
     30 F30         2.2919    7.0208   17.4888 F           1 MOL      -0.1840
     31 C31         0.3175   14.4163   14.0790 C.ar        1 MOL       0.1393
     32 O32         0.0868   15.5903   13.4453 O.3         1 MOL      -0.3302
     33 C33         1.6459   14.1240   14.4478 C.ar        1 MOL       0.1232
     34 O34         2.6302   15.0268   14.1947 O.3         1 MOL      -0.3356
     35 C35        -1.9474   13.9130   22.8015 C.ar        1 MOL       0.0444
     36 N38        -0.8859   14.1565   21.9774 N.ar        1 MOL      -0.2825
     37 C39        -1.0370   14.7086   20.7376 C.ar        1 MOL       0.0619
     38 N40        -2.2734   15.0562   20.2931 N.ar        1 MOL      -0.2608
     39 H1         -6.3816   15.6166   19.8191 H           1 MOL       0.0998
     40 H2         -3.8451   17.3042   19.6511 H           1 MOL       0.0678
     41 H3         -5.3065   18.2365   20.8956 H           1 MOL       0.2101
     42 H4         -4.0491   17.5226   17.4045 H           1 MOL       0.0667
     43 H5         -5.8270   18.8883   17.6387 H           1 MOL       0.2102
     44 H6         -6.3162   15.5278   17.2118 H           1 MOL       0.0749
     45 H7         -0.6995   12.9974   24.2563 H           1 MOL       0.0446
     46 H8         -2.3442   12.3495   24.1585 H           1 MOL       0.0446
     47 H9         -2.0564   13.9361   24.9114 H           1 MOL       0.0446
     48 H10        -6.3134   14.7576   22.1721 H           1 MOL       0.1373
     49 H11        -4.0783   14.3105   16.3052 H           1 MOL       0.0477
     50 H12        -4.9023   16.7530   15.0108 H           1 MOL       0.0470
     51 H13        -3.9458   16.0444   13.0542 H           1 MOL       0.0643
     52 H14        -4.5568   14.4601   13.5327 H           1 MOL       0.0643
     53 H15        -1.9712   15.6150   14.4095 H           1 MOL       0.1864
     54 H16        -1.1015   11.5302   15.0751 H           1 MOL       0.0555
     55 H17         2.9409   12.6796   15.2653 H           1 MOL       0.0543
     56 H18         0.1416   10.9132   17.6141 H           1 MOL       0.0601
     57 H19         0.7363    8.7822   18.5743 H           1 MOL       0.0602
     58 H20         2.5170   10.0347   14.2284 H           1 MOL       0.0601
     59 H21         3.1028    7.9109   15.2025 H           1 MOL       0.0602
     60 H22         0.3537   16.2842   14.0880 H           1 MOL       0.2479
     61 H23         2.6944   15.5741   15.0074 H           1 MOL       0.2443
     62 H24        -0.2171   14.8643   20.1501 H           1 MOL       0.1019
@<TRIPOS>BOND
     1     1     2   1
     2    10     1   1
     3     1    13   1
     4     2     3   1
     5     2     4   1
     6     4     5   1
     7     6     4   1
     8    13     6   1
     9     6    14   1
    10    35     7   1
    11     8     9   2
    12    12     8   1
    13    10     9   1
    14    11    10   1
    15    12    11  ar
    16    11    38  ar
    17    12    35  ar
    18    14    15   2
    19    15    16   1
    20    16    17   1
    21    17    18  am
    22    18    19   2
    23    18    20   1
    24    20    21  ar
    25    20    31  ar
    26    21    22  ar
    27    22    23  ar
    28    22    24   1
    29    23    33  ar
    30    24    25  ar
    31    24    27  ar
    32    25    26  ar
    33    26    29  ar
    34    27    28  ar
    35    28    29  ar
    36    29    30   1
    37    31    32   1
    38    31    33  ar
    39    33    34   1
    40    35    36  ar
    41    36    37  ar
    42    37    38  ar
    43     1    39   1
    44     2    40   1
    45     3    41   1
    46     4    42   1
    47     5    43   1
    48     6    44   1
    49     7    45   1
    50     7    46   1
    51     7    47   1
    52     9    48   1
    53    14    49   1
    54    15    50   1
    55    16    51   1
    56    16    52   1
    57    17    53   1
    58    21    54   1
    59    23    55   1
    60    25    56   1
    61    26    57   1
    62    27    58   1
    63    28    59   1
    64    32    60   1
    65    34    61   1
    66    37    62   1
@<TRIPOS>SUBSTRUCTURE
     1  MOL      1

