@<TRIPOS>MOLECULE
3nw9_ligand_039
    62    66
SMALL
GAST_HUCK
****
This file was generated by PARSER (from files_GN.cpp)

@<TRIPOS>ATOM
      1 C1         -7.3903   13.3948   15.7655 C.3         1 MOL       0.2034
      2 C2         -7.4818   11.8979   16.1355 C.3         1 MOL       0.1402
      3 O3         -8.7107   11.5774   16.7897 O.3         1 MOL      -0.3834
      4 C4         -6.2259   11.6520   17.0010 C.3         1 MOL       0.1189
      5 O5         -6.5171   11.2879   18.3510 O.3         1 MOL      -0.3846
      6 C6         -5.4584   13.0024   16.9304 C.3         1 MOL       0.1082
      7 C7        -10.6156   15.3481   10.9286 C.3         1 MOL      -0.0106
      8 N8         -8.3141   13.7758   12.2949 N.2         1 MOL      -0.2933
      9 C9         -7.5380   13.2928   13.2808 C.2         1 MOL       0.1151
     10 N10        -7.9650   13.7226   14.4913 N.pl3       1 MOL      -0.1882
     11 C11        -9.0312   14.5075   14.2586 C.ar        1 MOL       0.1683
     12 C12        -9.2511   14.5309   12.8830 C.ar        1 MOL       0.0876
     13 O13        -5.9885   13.6934   15.7897 O.3         1 MOL      -0.3296
     14 C14        -4.0069   12.9089   16.8446 C.2         1 MOL      -0.0658
     15 C15        -3.3594   12.1704   15.9244 C.2         1 MOL      -0.0744
     16 C16        -1.9181   12.0463   15.8598 C.3         1 MOL       0.0471
     17 N17        -1.3327   13.3115   15.5345 N.am        1 MOL      -0.2802
     18 C18        -0.6551   13.6061   14.4370 C.2         1 MOL       0.1986
     19 O19        -0.4481   12.7874   13.5492 O.2         1 MOL      -0.3908
     20 C20        -0.1338   14.8734   14.2889 C.ar        1 MOL       0.0720
     21 C21        -0.9960   15.9866   14.1724 C.ar        1 MOL      -0.0533
     22 C22        -0.5064   17.2990   13.9401 C.ar        1 MOL      -0.0339
     23 C23         0.9009   17.4464   13.8315 C.ar        1 MOL      -0.0299
     24 C24        -1.3942   18.4284   13.7954 C.ar        1 MOL      -0.0299
     25 C25        -2.7028   18.2869   13.2592 C.ar        1 MOL      -0.0581
     26 C26        -3.5647   19.3876   13.1175 C.ar        1 MOL      -0.0288
     27 C27        -0.9907   19.7407   14.1654 C.ar        1 MOL      -0.0581
     28 C28        -1.8375   20.8484   13.9966 C.ar        1 MOL      -0.0288
     29 C29        -3.1337   20.6754   13.4806 C.ar        1 MOL       0.1316
     30 F30        -3.9235   21.6999   13.3403 F           1 MOL      -0.1840
     31 C31         1.2653   15.0692   14.2278 C.ar        1 MOL       0.1393
     32 O32         2.1149   14.0181   14.3783 O.3         1 MOL      -0.3302
     33 C33         1.7786   16.3595   13.9887 C.ar        1 MOL       0.1232
     34 O34         3.1230   16.5336   13.8548 O.3         1 MOL      -0.3356
     35 C35       -10.3271   15.2808   12.3717 C.ar        1 MOL       0.0444
     36 N38       -11.1044   15.9586   13.2634 N.ar        1 MOL      -0.2825
     37 C39       -10.8743   15.9293   14.6061 C.ar        1 MOL       0.0619
     38 N40        -9.8371   15.2012   15.1018 N.ar        1 MOL      -0.2608
     39 H1         -7.8786   13.9871   16.5528 H           1 MOL       0.0998
     40 H2         -7.4205   11.2816   15.2344 H           1 MOL       0.0678
     41 H3         -8.7034   12.0887   17.6265 H           1 MOL       0.2101
     42 H4         -5.6510   10.8298   16.5650 H           1 MOL       0.0667
     43 H5         -6.9810   10.4284   18.2836 H           1 MOL       0.2102
     44 H6         -5.7088   13.5991   17.8200 H           1 MOL       0.0749
     45 H7        -11.4828   15.9782   10.7373 H           1 MOL       0.0446
     46 H8        -10.8227   14.3491   10.5432 H           1 MOL       0.0446
     47 H9         -9.7604   15.7690   10.3987 H           1 MOL       0.0446
     48 H10        -6.7358   12.6792   13.1239 H           1 MOL       0.1373
     49 H11        -3.4690   13.4379   17.4987 H           1 MOL       0.0477
     50 H12        -3.8925   11.6543   15.2650 H           1 MOL       0.0470
     51 H13        -1.6619   11.2731   15.1341 H           1 MOL       0.0643
     52 H14        -1.5306   11.7195   16.8303 H           1 MOL       0.0643
     53 H15        -1.4327   14.0145   16.1887 H           1 MOL       0.1864
     54 H16        -2.0025   15.8236   14.2571 H           1 MOL       0.0555
     55 H17         1.3098   18.3583   13.6135 H           1 MOL       0.0543
     56 H18        -3.0448   17.3780   12.9399 H           1 MOL       0.0601
     57 H19        -4.5053   19.2520   12.7337 H           1 MOL       0.0602
     58 H20        -0.0697   19.9120   14.5751 H           1 MOL       0.0601
     59 H21        -1.5088   21.7824   14.2557 H           1 MOL       0.0602
     60 H22         2.8582   14.3154   14.9457 H           1 MOL       0.2479
     61 H23         3.2353   17.3055   13.2610 H           1 MOL       0.2443
     62 H24       -11.4807   16.4512   15.2386 H           1 MOL       0.1019
@<TRIPOS>BOND
     1     1     2   1
     2    10     1   1
     3     1    13   1
     4     2     3   1
     5     2     4   1
     6     4     5   1
     7     6     4   1
     8    13     6   1
     9     6    14   1
    10    35     7   1
    11     8     9   2
    12    12     8   1
    13    10     9   1
    14    11    10   1
    15    12    11  ar
    16    11    38  ar
    17    12    35  ar
    18    14    15   2
    19    15    16   1
    20    16    17   1
    21    17    18  am
    22    18    19   2
    23    18    20   1
    24    20    21  ar
    25    20    31  ar
    26    21    22  ar
    27    22    23  ar
    28    22    24   1
    29    23    33  ar
    30    24    25  ar
    31    24    27  ar
    32    25    26  ar
    33    26    29  ar
    34    27    28  ar
    35    28    29  ar
    36    29    30   1
    37    31    32   1
    38    31    33  ar
    39    33    34   1
    40    35    36  ar
    41    36    37  ar
    42    37    38  ar
    43     1    39   1
    44     2    40   1
    45     3    41   1
    46     4    42   1
    47     5    43   1
    48     6    44   1
    49     7    45   1
    50     7    46   1
    51     7    47   1
    52     9    48   1
    53    14    49   1
    54    15    50   1
    55    16    51   1
    56    16    52   1
    57    17    53   1
    58    21    54   1
    59    23    55   1
    60    25    56   1
    61    26    57   1
    62    27    58   1
    63    28    59   1
    64    32    60   1
    65    34    61   1
    66    37    62   1
@<TRIPOS>SUBSTRUCTURE
     1  MOL      1

