@<TRIPOS>MOLECULE
3nw9_ligand_025
    62    66
SMALL
GAST_HUCK
****
This file was generated by PARSER (from files_GN.cpp)

@<TRIPOS>ATOM
      1 C1         -5.4366   20.6188   17.2093 C.3         1 MOL       0.2034
      2 C2         -6.7344   19.8399   17.5272 C.3         1 MOL       0.1402
      3 O3         -7.7639   20.6502   18.0954 O.3         1 MOL      -0.3834
      4 C4         -6.2285   18.7841   18.5194 C.3         1 MOL       0.1189
      5 O5         -6.1407   19.3601   19.8273 O.3         1 MOL      -0.3846
      6 C6         -4.8203   18.4615   17.9586 C.3         1 MOL       0.1082
      7 C7         -4.7830   22.5835   11.4223 C.3         1 MOL      -0.0106
      8 N8         -6.0106   22.6021   14.2472 N.2         1 MOL      -0.2933
      9 C9         -6.2484   22.2348   15.5168 C.2         1 MOL       0.1151
     10 N10        -5.4312   21.2198   15.8961 N.pl3       1 MOL      -0.1882
     11 C11        -4.6601   20.9306   14.8299 C.ar        1 MOL       0.1683
     12 C12        -5.0357   21.7964   13.8047 C.ar        1 MOL       0.0876
     13 O13        -4.3431   19.7051   17.4180 O.3         1 MOL      -0.3296
     14 C14        -4.8008   17.4089   16.9537 C.2         1 MOL      -0.0658
     15 C15        -3.9040   17.3650   15.9519 C.2         1 MOL      -0.0744
     16 C16        -3.9216   16.3448   14.9177 C.3         1 MOL       0.0471
     17 N17        -2.6603   15.6619   14.8781 N.am        1 MOL      -0.2802
     18 C18        -2.4143   14.4662   14.3572 C.2         1 MOL       0.1986
     19 O19        -3.3102   13.8044   13.8454 O.2         1 MOL      -0.3908
     20 C20        -1.1557   13.8939   14.5345 C.ar        1 MOL       0.0720
     21 C21        -1.0515   12.6258   15.1597 C.ar        1 MOL      -0.0533
     22 C22         0.1941   11.9801   15.3737 C.ar        1 MOL      -0.0339
     23 C23         1.3567   12.6672   14.9449 C.ar        1 MOL      -0.0299
     24 C24         0.2622   10.6963   16.0279 C.ar        1 MOL      -0.0299
     25 C25        -0.8511    9.8114   16.0582 C.ar        1 MOL      -0.0581
     26 C26        -0.7970    8.5704   16.7187 C.ar        1 MOL      -0.0288
     27 C27         1.4436   10.2571   16.6868 C.ar        1 MOL      -0.0581
     28 C28         1.5119    9.0111   17.3347 C.ar        1 MOL      -0.0288
     29 C29         0.3879    8.1660   17.3589 C.ar        1 MOL       0.1316
     30 F30         0.4454    7.0105   17.9675 F           1 MOL      -0.1840
     31 C31         0.0334   14.5586   14.1476 C.ar        1 MOL       0.1393
     32 O32         0.0032   15.7563   13.5115 O.3         1 MOL      -0.3302
     33 C33         1.2864   13.9458   14.3561 C.ar        1 MOL       0.1232
     34 O34         2.4243   14.5802   13.9635 O.3         1 MOL      -0.3356
     35 C35        -4.4063   21.7036   12.5479 C.ar        1 MOL       0.0444
     36 N38        -3.4272   20.7651   12.4157 N.ar        1 MOL      -0.2825
     37 C39        -3.0597   19.9368   13.4349 C.ar        1 MOL       0.0619
     38 N40        -3.6798   20.0056   14.6447 N.ar        1 MOL      -0.2608
     39 H1         -5.3243   21.4166   17.9484 H           1 MOL       0.0998
     40 H2         -7.1168   19.3602   16.6164 H           1 MOL       0.0678
     41 H3         -8.5733   20.4317   17.5747 H           1 MOL       0.2101
     42 H4         -6.8973   17.9125   18.5574 H           1 MOL       0.0667
     43 H5         -5.7638   18.6538   20.3932 H           1 MOL       0.2102
     44 H6         -4.1593   18.1482   18.7751 H           1 MOL       0.0749
     45 H7         -4.1958   22.3506   10.5298 H           1 MOL       0.0446
     46 H8         -4.6104   23.6301   11.6911 H           1 MOL       0.0446
     47 H9         -5.8422   22.4482   11.1854 H           1 MOL       0.0446
     48 H10        -6.9485   22.6810   16.1155 H           1 MOL       0.1373
     49 H11        -5.4909   16.6947   17.0124 H           1 MOL       0.0477
     50 H12        -3.2631   18.1272   15.8462 H           1 MOL       0.0470
     51 H13        -4.0769   16.8421   13.9607 H           1 MOL       0.0643
     52 H14        -4.7435   15.6337   15.0681 H           1 MOL       0.0643
     53 H15        -1.9196   16.0784   15.3408 H           1 MOL       0.1864
     54 H16        -1.9031   12.1797   15.5089 H           1 MOL       0.0555
     55 H17         2.2787   12.2383   15.0573 H           1 MOL       0.0543
     56 H18        -1.7252   10.0610   15.5881 H           1 MOL       0.0601
     57 H19        -1.6174    7.9579   16.7279 H           1 MOL       0.0602
     58 H20         2.2721   10.8559   16.7152 H           1 MOL       0.0601
     59 H21         2.3801    8.7190   17.7917 H           1 MOL       0.0602
     60 H22         0.0523   16.4306   14.2218 H           1 MOL       0.2479
     61 H23         3.1288   14.2945   14.5862 H           1 MOL       0.2443
     62 H24        -2.3140   19.2586   13.2872 H           1 MOL       0.1019
@<TRIPOS>BOND
     1     1     2   1
     2    10     1   1
     3     1    13   1
     4     2     3   1
     5     2     4   1
     6     4     5   1
     7     6     4   1
     8    13     6   1
     9     6    14   1
    10    35     7   1
    11     8     9   2
    12    12     8   1
    13    10     9   1
    14    11    10   1
    15    12    11  ar
    16    11    38  ar
    17    12    35  ar
    18    14    15   2
    19    15    16   1
    20    16    17   1
    21    17    18  am
    22    18    19   2
    23    18    20   1
    24    20    21  ar
    25    20    31  ar
    26    21    22  ar
    27    22    23  ar
    28    22    24   1
    29    23    33  ar
    30    24    25  ar
    31    24    27  ar
    32    25    26  ar
    33    26    29  ar
    34    27    28  ar
    35    28    29  ar
    36    29    30   1
    37    31    32   1
    38    31    33  ar
    39    33    34   1
    40    35    36  ar
    41    36    37  ar
    42    37    38  ar
    43     1    39   1
    44     2    40   1
    45     3    41   1
    46     4    42   1
    47     5    43   1
    48     6    44   1
    49     7    45   1
    50     7    46   1
    51     7    47   1
    52     9    48   1
    53    14    49   1
    54    15    50   1
    55    16    51   1
    56    16    52   1
    57    17    53   1
    58    21    54   1
    59    23    55   1
    60    25    56   1
    61    26    57   1
    62    27    58   1
    63    28    59   1
    64    32    60   1
    65    34    61   1
    66    37    62   1
@<TRIPOS>SUBSTRUCTURE
     1  MOL      1

