@<TRIPOS>MOLECULE
3nw9_ligand_021
    62    66
SMALL
GAST_HUCK
****
This file was generated by PARSER (from files_GN.cpp)

@<TRIPOS>ATOM
      1 C1         -4.8349   21.1000   13.8931 C.3         1 MOL       0.2034
      2 C2         -5.0401   20.1957   15.1269 C.3         1 MOL       0.1402
      3 O3         -6.1296   20.6042   15.9530 O.3         1 MOL      -0.3834
      4 C4         -3.6638   20.2755   15.8147 C.3         1 MOL       0.1189
      5 O5         -3.6068   21.3334   16.7799 O.3         1 MOL      -0.3846
      6 C6         -2.6936   20.5502   14.6272 C.3         1 MOL       0.1082
      7 C7         -8.6565   21.3674    9.1036 C.3         1 MOL      -0.0106
      8 N8         -6.8976   19.8984   11.1659 N.2         1 MOL      -0.2933
      9 C9         -6.0766   19.7185   12.2177 C.2         1 MOL       0.1151
     10 N10        -5.7443   20.8967   12.7946 N.pl3       1 MOL      -0.1882
     11 C11        -6.3659   21.8520   12.0761 C.ar        1 MOL       0.1683
     12 C12        -7.0944   21.2182   11.0664 C.ar        1 MOL       0.0876
     13 O13        -3.4944   20.8353   13.4671 O.3         1 MOL      -0.3296
     14 C14        -1.7730   19.4628   14.3236 C.2         1 MOL      -0.0658
     15 C15        -2.1646   18.2767   13.8305 C.2         1 MOL      -0.0744
     16 C16        -1.2454   17.1998   13.5178 C.3         1 MOL       0.0471
     17 N17        -1.7383   15.9451   13.9975 N.am        1 MOL      -0.2802
     18 C18        -2.5531   15.1048   13.3634 C.2         1 MOL       0.1986
     19 O19        -2.9711   15.4349   12.2606 O.2         1 MOL      -0.3908
     20 C20        -2.9377   13.8694   13.9279 C.ar        1 MOL       0.0720
     21 C21        -2.2005   13.3030   15.0048 C.ar        1 MOL      -0.0533
     22 C22        -2.5421   12.0624   15.5939 C.ar        1 MOL      -0.0339
     23 C23        -3.6534   11.3628   15.0742 C.ar        1 MOL      -0.0299
     24 C24        -1.7755   11.5264   16.6701 C.ar        1 MOL      -0.0299
     25 C25        -1.4450   12.3238   17.7942 C.ar        1 MOL      -0.0581
     26 C26        -0.6672   11.8070   18.8491 C.ar        1 MOL      -0.0288
     27 C27        -1.3047   10.1897   16.6383 C.ar        1 MOL      -0.0581
     28 C28        -0.5306    9.6675   17.6930 C.ar        1 MOL      -0.0288
     29 C29        -0.2086   10.4778   18.7992 C.ar        1 MOL       0.1316
     30 F30         0.5163    9.9966   19.7792 F           1 MOL      -0.1840
     31 C31        -4.0470   13.1285   13.4305 C.ar        1 MOL       0.1393
     32 O32        -4.8323   13.5678   12.4094 O.3         1 MOL      -0.3302
     33 C33        -4.3950   11.8876   14.0037 C.ar        1 MOL       0.1232
     34 O34        -5.4690   11.1950   13.5443 O.3         1 MOL      -0.3356
     35 C35        -7.8458   21.9948   10.1623 C.ar        1 MOL       0.0444
     36 N38        -7.7966   23.3506   10.3013 N.ar        1 MOL      -0.2825
     37 C39        -7.0668   23.9553   11.2815 C.ar        1 MOL       0.0619
     38 N40        -6.3601   23.2061   12.1718 N.ar        1 MOL      -0.2608
     39 H1         -4.8803   22.1458   14.2141 H           1 MOL       0.0998
     40 H2         -5.2139   19.1597   14.8264 H           1 MOL       0.0678
     41 H3         -6.9327   20.4356   15.4124 H           1 MOL       0.2101
     42 H4         -3.4417   19.3406   16.3383 H           1 MOL       0.0667
     43 H5         -3.8223   22.1572   16.2918 H           1 MOL       0.2102
     44 H6         -2.0974   21.4457   14.8444 H           1 MOL       0.0749
     45 H7         -9.1721   22.1190    8.5031 H           1 MOL       0.0446
     46 H8         -9.4015   20.7136    9.5578 H           1 MOL       0.0446
     47 H9         -8.0154   20.7760    8.4496 H           1 MOL       0.0446
     48 H10        -5.7490   18.7960   12.5122 H           1 MOL       0.1373
     49 H11        -0.8007   19.6302   14.4557 H           1 MOL       0.0477
     50 H12        -3.1269   18.1358   13.6229 H           1 MOL       0.0470
     51 H13        -0.2684   17.3620   13.9798 H           1 MOL       0.0643
     52 H14        -1.0897   17.1637   12.4353 H           1 MOL       0.0643
     53 H15        -1.4653   15.7010   14.8950 H           1 MOL       0.1864
     54 H16        -1.3654   13.7783   15.3453 H           1 MOL       0.0555
     55 H17        -3.9445   10.4691   15.4812 H           1 MOL       0.0543
     56 H18        -1.7755   13.2875   17.8629 H           1 MOL       0.0601
     57 H19        -0.4374   12.3983   19.6528 H           1 MOL       0.0602
     58 H20        -1.5007    9.5889   15.8366 H           1 MOL       0.0601
     59 H21        -0.1970    8.7013   17.6543 H           1 MOL       0.0602
     60 H22        -5.3151   14.3372   12.7803 H           1 MOL       0.2479
     61 H23        -6.2387   11.6637   13.9293 H           1 MOL       0.2443
     62 H24        -7.0500   24.9738   11.3482 H           1 MOL       0.1019
@<TRIPOS>BOND
     1     1     2   1
     2    10     1   1
     3     1    13   1
     4     2     3   1
     5     2     4   1
     6     4     5   1
     7     6     4   1
     8    13     6   1
     9     6    14   1
    10    35     7   1
    11     8     9   2
    12    12     8   1
    13    10     9   1
    14    11    10   1
    15    12    11  ar
    16    11    38  ar
    17    12    35  ar
    18    14    15   2
    19    15    16   1
    20    16    17   1
    21    17    18  am
    22    18    19   2
    23    18    20   1
    24    20    21  ar
    25    20    31  ar
    26    21    22  ar
    27    22    23  ar
    28    22    24   1
    29    23    33  ar
    30    24    25  ar
    31    24    27  ar
    32    25    26  ar
    33    26    29  ar
    34    27    28  ar
    35    28    29  ar
    36    29    30   1
    37    31    32   1
    38    31    33  ar
    39    33    34   1
    40    35    36  ar
    41    36    37  ar
    42    37    38  ar
    43     1    39   1
    44     2    40   1
    45     3    41   1
    46     4    42   1
    47     5    43   1
    48     6    44   1
    49     7    45   1
    50     7    46   1
    51     7    47   1
    52     9    48   1
    53    14    49   1
    54    15    50   1
    55    16    51   1
    56    16    52   1
    57    17    53   1
    58    21    54   1
    59    23    55   1
    60    25    56   1
    61    26    57   1
    62    27    58   1
    63    28    59   1
    64    32    60   1
    65    34    61   1
    66    37    62   1
@<TRIPOS>SUBSTRUCTURE
     1  MOL      1

