@<TRIPOS>MOLECULE
3nw9_ligand_051
    62    66
SMALL
GAST_HUCK
****
This file was generated by PARSER (from files_GN.cpp)

@<TRIPOS>ATOM
      1 C1         -4.7226   13.0790   18.8121 C.3         1 MOL       0.2034
      2 C2         -4.9855   13.7199   17.4336 C.3         1 MOL       0.1402
      3 O3         -6.2798   14.3113   17.3263 O.3         1 MOL      -0.3834
      4 C4         -4.7782   12.5326   16.4841 C.3         1 MOL       0.1189
      5 O5         -5.9459   11.7160   16.3705 O.3         1 MOL      -0.3846
      6 C6         -3.6421   11.7518   17.1907 C.3         1 MOL       0.1082
      7 C7         -2.0894   16.5977   23.0999 C.3         1 MOL      -0.0106
      8 N8         -4.3981   15.7249   21.2456 N.2         1 MOL      -0.2933
      9 C9         -5.0641   15.0167   20.3117 C.2         1 MOL       0.1151
     10 N10        -4.2942   14.0296   19.8052 N.pl3       1 MOL      -0.1882
     11 C11        -3.1034   14.1159   20.4328 C.ar        1 MOL       0.1683
     12 C12        -3.1803   15.1789   21.3328 C.ar        1 MOL       0.0876
     13 O13        -3.7797   12.0130   18.5966 O.3         1 MOL      -0.3296
     14 C14        -2.3107   12.1476   16.7594 C.2         1 MOL      -0.0658
     15 C15        -1.8282   11.8751   15.5320 C.2         1 MOL      -0.0744
     16 C16        -0.5256   12.3315   15.0818 C.3         1 MOL       0.0471
     17 N17        -0.5173   13.7603   15.0084 N.am        1 MOL      -0.2802
     18 C18        -0.1168   14.5140   13.9932 C.2         1 MOL       0.1986
     19 O19         0.4154   14.0310   13.0005 O.2         1 MOL      -0.3908
     20 C20        -0.1962   15.8930   14.0905 C.ar        1 MOL       0.0720
     21 C21        -1.4602   16.5252   14.1600 C.ar        1 MOL      -0.0533
     22 C22        -1.5648   17.9334   14.2030 C.ar        1 MOL      -0.0339
     23 C23        -0.3827   18.7056   14.2287 C.ar        1 MOL      -0.0299
     24 C24        -2.8404   18.5592   14.1965 C.ar        1 MOL      -0.0299
     25 C25        -3.1830   19.4689   13.1697 C.ar        1 MOL      -0.0581
     26 C26        -4.4600   20.0583   13.1294 C.ar        1 MOL      -0.0288
     27 C27        -3.7935   18.2803   15.2029 C.ar        1 MOL      -0.0581
     28 C28        -5.0612   18.8919   15.1809 C.ar        1 MOL      -0.0288
     29 C29        -5.4006   19.7724   14.1369 C.ar        1 MOL       0.1316
     30 F30        -6.5846   20.3204   14.1016 F           1 MOL      -0.1840
     31 C31         0.9752   16.6839   14.1063 C.ar        1 MOL       0.1393
     32 O32         2.2026   16.1027   14.0550 O.3         1 MOL      -0.3302
     33 C33         0.8788   18.0869   14.2050 C.ar        1 MOL       0.1232
     34 O34         1.9860   18.8617   14.3089 O.3         1 MOL      -0.3356
     35 C35        -2.0636   15.4886   22.1311 C.ar        1 MOL       0.0444
     36 N38        -0.9452   14.7234   21.9812 N.ar        1 MOL      -0.2825
     37 C39        -0.8861   13.6896   21.0958 C.ar        1 MOL       0.0619
     38 N40        -1.9630   13.3882   20.3263 N.ar        1 MOL      -0.2608
     39 H1         -5.6417   12.5999   19.1674 H           1 MOL       0.0998
     40 H2         -4.2330   14.4894   17.2299 H           1 MOL       0.0678
     41 H3         -6.3242   14.6535   16.4091 H           1 MOL       0.2101
     42 H4         -4.5101   12.8812   15.4833 H           1 MOL       0.0667
     43 H5         -6.1314   11.3841   17.2742 H           1 MOL       0.2102
     44 H6         -3.7591   10.6753   17.0377 H           1 MOL       0.0749
     45 H7         -1.1353   16.6860   23.6222 H           1 MOL       0.0446
     46 H8         -2.8745   16.4211   23.8361 H           1 MOL       0.0446
     47 H9         -2.2910   17.5350   22.5793 H           1 MOL       0.0446
     48 H10        -6.0341   15.2022   20.0484 H           1 MOL       0.1373
     49 H11        -1.7352   12.6509   17.3970 H           1 MOL       0.0477
     50 H12        -2.3816   11.3398   14.9042 H           1 MOL       0.0470
     51 H13        -0.2760   11.8805   14.1137 H           1 MOL       0.0643
     52 H14         0.2347   12.0133   15.7998 H           1 MOL       0.0643
     53 H15        -0.8215   14.2275   15.8035 H           1 MOL       0.1864
     54 H16        -2.3153   15.9581   14.1321 H           1 MOL       0.0555
     55 H17        -0.4393   19.7261   14.2903 H           1 MOL       0.0543
     56 H18        -2.5096   19.7041   12.4346 H           1 MOL       0.0601
     57 H19        -4.6987   20.7021   12.3707 H           1 MOL       0.0602
     58 H20        -3.5666   17.6380   15.9687 H           1 MOL       0.0601
     59 H21        -5.7368   18.6901   15.9233 H           1 MOL       0.0602
     60 H22         2.5808   16.2368   14.9475 H           1 MOL       0.2479
     61 H23         2.5616   18.4097   14.9607 H           1 MOL       0.2443
     62 H24        -0.0300   13.1389   21.0160 H           1 MOL       0.1019
@<TRIPOS>BOND
     1     1     2   1
     2    10     1   1
     3     1    13   1
     4     2     3   1
     5     2     4   1
     6     4     5   1
     7     6     4   1
     8    13     6   1
     9     6    14   1
    10    35     7   1
    11     8     9   2
    12    12     8   1
    13    10     9   1
    14    11    10   1
    15    12    11  ar
    16    11    38  ar
    17    12    35  ar
    18    14    15   2
    19    15    16   1
    20    16    17   1
    21    17    18  am
    22    18    19   2
    23    18    20   1
    24    20    21  ar
    25    20    31  ar
    26    21    22  ar
    27    22    23  ar
    28    22    24   1
    29    23    33  ar
    30    24    25  ar
    31    24    27  ar
    32    25    26  ar
    33    26    29  ar
    34    27    28  ar
    35    28    29  ar
    36    29    30   1
    37    31    32   1
    38    31    33  ar
    39    33    34   1
    40    35    36  ar
    41    36    37  ar
    42    37    38  ar
    43     1    39   1
    44     2    40   1
    45     3    41   1
    46     4    42   1
    47     5    43   1
    48     6    44   1
    49     7    45   1
    50     7    46   1
    51     7    47   1
    52     9    48   1
    53    14    49   1
    54    15    50   1
    55    16    51   1
    56    16    52   1
    57    17    53   1
    58    21    54   1
    59    23    55   1
    60    25    56   1
    61    26    57   1
    62    27    58   1
    63    28    59   1
    64    32    60   1
    65    34    61   1
    66    37    62   1
@<TRIPOS>SUBSTRUCTURE
     1  MOL      1

