@<TRIPOS>MOLECULE
3nw9_ligand_033
    62    66
SMALL
GAST_HUCK
****
This file was generated by PARSER (from files_GN.cpp)

@<TRIPOS>ATOM
      1 C1         -7.9460   10.5930   11.3075 C.3         1 MOL       0.2034
      2 C2         -6.7317   10.8578   10.4020 C.3         1 MOL       0.1402
      3 O3         -7.0498   10.7390    9.0170 O.3         1 MOL      -0.3834
      4 C4         -5.6999    9.8315   10.9029 C.3         1 MOL       0.1189
      5 O5         -5.6979    8.6414   10.1111 O.3         1 MOL      -0.3846
      6 C6         -6.1655    9.5394   12.3583 C.3         1 MOL       0.1082
      7 C7        -11.2940   15.5932   12.5380 C.3         1 MOL      -0.0106
      8 N8        -10.5710   13.0445   10.9188 N.2         1 MOL      -0.2933
      9 C9         -9.9042   11.9281   10.5651 C.2         1 MOL       0.1151
     10 N10        -8.8528   11.7064   11.3855 N.pl3       1 MOL      -0.1882
     11 C11        -8.8508   12.7149   12.2775 C.ar        1 MOL       0.1683
     12 C12        -9.9286   13.5472   11.9820 C.ar        1 MOL       0.0876
     13 O13        -7.3727   10.2790   12.5834 O.3         1 MOL      -0.3296
     14 C14        -5.2067    9.8712   13.4069 C.2         1 MOL      -0.0658
     15 C15        -4.6627   11.0919   13.5660 C.2         1 MOL      -0.0744
     16 C16        -3.7816   11.4171   14.6745 C.3         1 MOL       0.0471
     17 N17        -3.0928   12.6620   14.4728 N.am        1 MOL      -0.2802
     18 C18        -1.8017   12.9174   14.6892 C.2         1 MOL       0.1986
     19 O19        -1.1022   12.0139   15.1318 O.2         1 MOL      -0.3908
     20 C20        -1.2253   14.1801   14.4278 C.ar        1 MOL       0.0720
     21 C21        -2.0391   15.3306   14.2377 C.ar        1 MOL      -0.0533
     22 C22        -1.5152   16.6151   13.9213 C.ar        1 MOL      -0.0339
     23 C23        -0.1047   16.7243   13.8366 C.ar        1 MOL      -0.0299
     24 C24        -2.3773   17.7590   13.7013 C.ar        1 MOL      -0.0299
     25 C25        -1.9240   19.0938   13.9155 C.ar        1 MOL      -0.0581
     26 C26        -2.7578   20.2056   13.6984 C.ar        1 MOL      -0.0288
     27 C27        -3.7305   17.6075   13.2773 C.ar        1 MOL      -0.0581
     28 C28        -4.5796   18.7131   13.0957 C.ar        1 MOL      -0.0288
     29 C29        -4.0914   20.0164   13.2951 C.ar        1 MOL       0.1316
     30 F30        -4.8763   21.0469   13.1046 F           1 MOL      -0.1840
     31 C31         0.1877   14.3655   14.3615 C.ar        1 MOL       0.1393
     32 O32         1.0726   13.3437   14.5359 O.3         1 MOL      -0.3302
     33 C33         0.7344   15.6300   14.0871 C.ar        1 MOL       0.1232
     34 O34         2.0781   15.8015   14.0580 O.3         1 MOL      -0.3356
     35 C35       -10.1667   14.6784   12.7877 C.ar        1 MOL       0.0444
     36 N38        -9.3160   14.8983   13.8316 N.ar        1 MOL      -0.2825
     37 C39        -8.2670   14.0752   14.1066 C.ar        1 MOL       0.0619
     38 N40        -8.0312   12.9853   13.3276 N.ar        1 MOL      -0.2608
     39 H1         -8.4897    9.7057   10.9521 H           1 MOL       0.0998
     40 H2         -6.3573   11.8677   10.5930 H           1 MOL       0.0678
     41 H3         -6.2088   10.9297    8.5456 H           1 MOL       0.2101
     42 H4         -4.6938   10.2603   10.8526 H           1 MOL       0.0667
     43 H5         -5.0338    8.0593   10.5360 H           1 MOL       0.2102
     44 H6         -6.4257    8.4805   12.4494 H           1 MOL       0.0749
     45 H7        -11.3022   16.4094   13.2637 H           1 MOL       0.0446
     46 H8        -12.2350   15.0483   12.6191 H           1 MOL       0.0446
     47 H9        -11.2137   16.0201   11.5374 H           1 MOL       0.0446
     48 H10       -10.1769   11.3303    9.7819 H           1 MOL       0.1373
     49 H11        -4.9628    9.1548   14.0494 H           1 MOL       0.0477
     50 H12        -4.8935   11.8074   12.9144 H           1 MOL       0.0470
     51 H13        -3.0792   10.5964   14.8261 H           1 MOL       0.0643
     52 H14        -4.3919   11.5166   15.5737 H           1 MOL       0.0643
     53 H15        -3.6400   13.3968   14.1473 H           1 MOL       0.1864
     54 H16        -3.0405   15.2426   14.3738 H           1 MOL       0.0555
     55 H17         0.3381   17.6072   13.5770 H           1 MOL       0.0543
     56 H18        -0.9796   19.2830   14.2504 H           1 MOL       0.0601
     57 H19        -2.3990   21.1506   13.8532 H           1 MOL       0.0602
     58 H20        -4.1227   16.6877   13.0698 H           1 MOL       0.0601
     59 H21        -5.5499   18.5687   12.8122 H           1 MOL       0.0602
     60 H22         1.3148   13.0649   13.6280 H           1 MOL       0.2479
     61 H23         2.2896   16.2906   14.8887 H           1 MOL       0.2443
     62 H24        -7.6544   14.2770   14.8973 H           1 MOL       0.1019
@<TRIPOS>BOND
     1     1     2   1
     2    10     1   1
     3     1    13   1
     4     2     3   1
     5     2     4   1
     6     4     5   1
     7     6     4   1
     8    13     6   1
     9     6    14   1
    10    35     7   1
    11     8     9   2
    12    12     8   1
    13    10     9   1
    14    11    10   1
    15    12    11  ar
    16    11    38  ar
    17    12    35  ar
    18    14    15   2
    19    15    16   1
    20    16    17   1
    21    17    18  am
    22    18    19   2
    23    18    20   1
    24    20    21  ar
    25    20    31  ar
    26    21    22  ar
    27    22    23  ar
    28    22    24   1
    29    23    33  ar
    30    24    25  ar
    31    24    27  ar
    32    25    26  ar
    33    26    29  ar
    34    27    28  ar
    35    28    29  ar
    36    29    30   1
    37    31    32   1
    38    31    33  ar
    39    33    34   1
    40    35    36  ar
    41    36    37  ar
    42    37    38  ar
    43     1    39   1
    44     2    40   1
    45     3    41   1
    46     4    42   1
    47     5    43   1
    48     6    44   1
    49     7    45   1
    50     7    46   1
    51     7    47   1
    52     9    48   1
    53    14    49   1
    54    15    50   1
    55    16    51   1
    56    16    52   1
    57    17    53   1
    58    21    54   1
    59    23    55   1
    60    25    56   1
    61    26    57   1
    62    27    58   1
    63    28    59   1
    64    32    60   1
    65    34    61   1
    66    37    62   1
@<TRIPOS>SUBSTRUCTURE
     1  MOL      1

