@<TRIPOS>MOLECULE
3nw9_ligand_007
    62    66
SMALL
GAST_HUCK
****
This file was generated by PARSER (from files_GN.cpp)

@<TRIPOS>ATOM
      1 C1         -4.6114   21.3543   13.9603 C.3         1 MOL       0.2034
      2 C2         -4.9826   20.6342   15.2771 C.3         1 MOL       0.1402
      3 O3         -5.8636   21.4031   16.0982 O.3         1 MOL      -0.3834
      4 C4         -3.6107   20.3696   15.9152 C.3         1 MOL       0.1189
      5 O5         -3.1897   21.4599   16.7330 O.3         1 MOL      -0.3846
      6 C6         -2.6743   20.2252   14.6889 C.3         1 MOL       0.1082
      7 C7         -8.4210   21.2220    9.1439 C.3         1 MOL      -0.0106
      8 N8         -6.5691   19.9364   11.2722 N.2         1 MOL      -0.2933
      9 C9         -5.7482   19.8528   12.3327 C.2         1 MOL       0.1151
     10 N10        -5.4970   21.0709   12.8618 N.pl3       1 MOL      -0.1882
     11 C11        -6.1972   21.9516   12.1204 C.ar        1 MOL       0.1683
     12 C12        -6.8673   21.2359   11.1304 C.ar        1 MOL       0.0876
     13 O13        -3.2668   20.9762   13.6167 O.3         1 MOL      -0.3296
     14 C14        -2.5250   18.8472   14.2315 C.2         1 MOL      -0.0658
     15 C15        -1.4206   18.0978   14.4246 C.2         1 MOL      -0.0744
     16 C16        -1.2895   16.7519   13.8956 C.3         1 MOL       0.0471
     17 N17        -2.3544   15.9237   14.3738 N.am        1 MOL      -0.2802
     18 C18        -3.3383   15.4097   13.6515 C.2         1 MOL       0.1986
     19 O19        -3.3482   15.5885   12.4375 O.2         1 MOL      -0.3908
     20 C20        -4.4103   14.7337   14.2380 C.ar        1 MOL       0.0720
     21 C21        -4.8168   15.0497   15.5620 C.ar        1 MOL      -0.0533
     22 C22        -5.9505   14.4449   16.1490 C.ar        1 MOL      -0.0339
     23 C23        -6.6822   13.5014   15.3982 C.ar        1 MOL      -0.0299
     24 C24        -6.3679   14.7951   17.4569 C.ar        1 MOL      -0.0299
     25 C25        -5.5474   14.5183   18.5756 C.ar        1 MOL      -0.0581
     26 C26        -5.9739   14.8492   19.8741 C.ar        1 MOL      -0.0288
     27 C27        -7.6221   15.4176   17.6687 C.ar        1 MOL      -0.0581
     28 C28        -8.0415   15.7576   18.9654 C.ar        1 MOL      -0.0288
     29 C29        -7.2196   15.4722   20.0723 C.ar        1 MOL       0.1316
     30 F30        -7.6127   15.7842   21.2780 F           1 MOL      -0.1840
     31 C31        -5.1688   13.7749   13.5101 C.ar        1 MOL       0.1393
     32 O32        -4.8584   13.3981   12.2356 O.3         1 MOL      -0.3302
     33 C33        -6.2944   13.1654   14.0927 C.ar        1 MOL       0.1232
     34 O34        -7.0003   12.2398   13.3900 O.3         1 MOL      -0.3356
     35 C35        -7.6740   21.9253   10.2045 C.ar        1 MOL       0.0444
     36 N38        -7.7504   23.2811   10.3197 N.ar        1 MOL      -0.2825
     37 C39        -7.0868   23.9668   11.2939 C.ar        1 MOL       0.0619
     38 N40        -6.3151   23.3017   12.1954 N.ar        1 MOL      -0.2608
     39 H1         -4.5784   22.4312   14.1497 H           1 MOL       0.0998
     40 H2         -5.4711   19.6734   15.0816 H           1 MOL       0.0678
     41 H3         -5.4101   22.2610   16.2439 H           1 MOL       0.2101
     42 H4         -3.6265   19.4704   16.5366 H           1 MOL       0.0667
     43 H5         -3.1534   22.2311   16.1303 H           1 MOL       0.2102
     44 H6         -1.6967   20.6695   14.9108 H           1 MOL       0.0749
     45 H7         -8.9920   21.9266    8.5343 H           1 MOL       0.0446
     46 H8         -9.1164   20.5078    9.5910 H           1 MOL       0.0446
     47 H9         -7.7276   20.6853    8.4938 H           1 MOL       0.0446
     48 H10        -5.3628   18.9701   12.6687 H           1 MOL       0.1373
     49 H11        -3.2895   18.4332   13.7535 H           1 MOL       0.0477
     50 H12        -0.6664   18.4701   14.9419 H           1 MOL       0.0470
     51 H13        -0.3427   16.3080   14.2200 H           1 MOL       0.0643
     52 H14        -1.2586   16.8154   12.8009 H           1 MOL       0.0643
     53 H15        -2.3627   15.7472   15.3281 H           1 MOL       0.1864
     54 H16        -4.3138   15.7677   16.0975 H           1 MOL       0.0555
     55 H17        -7.5132   13.0579   15.7989 H           1 MOL       0.0543
     56 H18        -4.6415   14.0559   18.4514 H           1 MOL       0.0601
     57 H19        -5.3743   14.6329   20.6771 H           1 MOL       0.0602
     58 H20        -8.2326   15.6371   16.8752 H           1 MOL       0.0601
     59 H21        -8.9488   16.2148   19.1048 H           1 MOL       0.0602
     60 H22        -3.8788   13.3415   12.1928 H           1 MOL       0.2479
     61 H23        -7.1279   11.4902   14.0125 H           1 MOL       0.2443
     62 H24        -7.1735   24.9818   11.3449 H           1 MOL       0.1019
@<TRIPOS>BOND
     1     1     2   1
     2    10     1   1
     3     1    13   1
     4     2     3   1
     5     2     4   1
     6     4     5   1
     7     6     4   1
     8    13     6   1
     9     6    14   1
    10    35     7   1
    11     8     9   2
    12    12     8   1
    13    10     9   1
    14    11    10   1
    15    12    11  ar
    16    11    38  ar
    17    12    35  ar
    18    14    15   2
    19    15    16   1
    20    16    17   1
    21    17    18  am
    22    18    19   2
    23    18    20   1
    24    20    21  ar
    25    20    31  ar
    26    21    22  ar
    27    22    23  ar
    28    22    24   1
    29    23    33  ar
    30    24    25  ar
    31    24    27  ar
    32    25    26  ar
    33    26    29  ar
    34    27    28  ar
    35    28    29  ar
    36    29    30   1
    37    31    32   1
    38    31    33  ar
    39    33    34   1
    40    35    36  ar
    41    36    37  ar
    42    37    38  ar
    43     1    39   1
    44     2    40   1
    45     3    41   1
    46     4    42   1
    47     5    43   1
    48     6    44   1
    49     7    45   1
    50     7    46   1
    51     7    47   1
    52     9    48   1
    53    14    49   1
    54    15    50   1
    55    16    51   1
    56    16    52   1
    57    17    53   1
    58    21    54   1
    59    23    55   1
    60    25    56   1
    61    26    57   1
    62    27    58   1
    63    28    59   1
    64    32    60   1
    65    34    61   1
    66    37    62   1
@<TRIPOS>SUBSTRUCTURE
     1  MOL      1

