@<TRIPOS>MOLECULE
3nw9_ligand_064
    62    66
SMALL
GAST_HUCK
****
This file was generated by PARSER (from files_GN.cpp)

@<TRIPOS>ATOM
      1 C1          0.1729    8.3181   17.1911 C.3         1 MOL       0.2034
      2 C2          1.2041    8.2078   16.0502 C.3         1 MOL       0.1402
      3 O3          2.1081    7.1215   16.2522 O.3         1 MOL      -0.3834
      4 C4          1.8930    9.5773   16.1038 C.3         1 MOL       0.1189
      5 O5          2.9756    9.5958   17.0365 O.3         1 MOL      -0.3846
      6 C6          0.7502   10.5147   16.5721 C.3         1 MOL       0.1082
      7 C7         -4.4737    4.3222   17.1404 C.3         1 MOL      -0.0106
      8 N8         -2.9730    6.8594   16.1740 N.2         1 MOL      -0.2933
      9 C9         -2.0054    7.7913   16.0966 C.2         1 MOL       0.1151
     10 N10        -1.0094    7.5315   16.9743 N.pl3       1 MOL      -0.1882
     11 C11        -1.3519    6.4011   17.6146 C.ar        1 MOL       0.1683
     12 C12        -2.5830    5.9863   17.1120 C.ar        1 MOL       0.0876
     13 O13        -0.1549    9.7084   17.3490 O.3         1 MOL      -0.3296
     14 C14         0.0319   11.1684   15.4831 C.2         1 MOL      -0.0658
     15 C15         0.5930   12.1046   14.7017 C.2         1 MOL      -0.0744
     16 C16        -0.1002   12.8006   13.6356 C.3         1 MOL       0.0471
     17 N17         0.0535   14.2103   13.8222 N.am        1 MOL      -0.2802
     18 C18        -0.8545   15.1747   13.6960 C.2         1 MOL       0.1986
     19 O19        -1.9991   14.8407   13.4026 O.2         1 MOL      -0.3908
     20 C20        -0.5454   16.5396   13.8794 C.ar        1 MOL       0.0720
     21 C21        -1.6054   17.4896   13.9487 C.ar        1 MOL      -0.0533
     22 C22        -1.3741   18.8655   14.1566 C.ar        1 MOL      -0.0339
     23 C23        -0.0526   19.3236   14.3023 C.ar        1 MOL      -0.0299
     24 C24        -2.4470   19.7824   14.2202 C.ar        1 MOL      -0.0299
     25 C25        -3.0554   20.0866   15.4588 C.ar        1 MOL      -0.0581
     26 C26        -4.1200   21.0061   15.5198 C.ar        1 MOL      -0.0288
     27 C27        -2.9070   20.4225   13.0485 C.ar        1 MOL      -0.0581
     28 C28        -3.9727   21.3402   13.1102 C.ar        1 MOL      -0.0288
     29 C29        -4.5845   21.6282   14.3450 C.ar        1 MOL       0.1316
     30 F30        -5.5803   22.4700   14.3972 F           1 MOL      -0.1840
     31 C31         0.7844   17.0449   14.0201 C.ar        1 MOL       0.1393
     32 O32         1.8944   16.2629   13.9263 O.3         1 MOL      -0.3302
     33 C33         1.0182   18.4201   14.2418 C.ar        1 MOL       0.1232
     34 O34         2.2711   18.9164   14.3943 O.3         1 MOL      -0.3356
     35 C35        -3.1712    4.8123   17.6229 C.ar        1 MOL       0.0444
     36 N38        -2.4875    4.1319   18.5879 N.ar        1 MOL      -0.2825
     37 C39        -1.2818    4.5505   19.0623 C.ar        1 MOL       0.0619
     38 N40        -0.7141    5.6871   18.5766 N.ar        1 MOL      -0.2608
     39 H1          0.6570    8.0076   18.1233 H           1 MOL       0.0998
     40 H2          0.7026    8.0878   15.0822 H           1 MOL       0.0678
     41 H3          2.8918    7.3260   15.6991 H           1 MOL       0.2101
     42 H4          2.2967    9.8418   15.1208 H           1 MOL       0.0667
     43 H5          2.5711    9.4292   17.9148 H           1 MOL       0.2102
     44 H6          1.1447   11.2939   17.2291 H           1 MOL       0.0749
     45 H7         -4.7570    3.3989   17.6514 H           1 MOL       0.0446
     46 H8         -4.4210    4.1221   16.0687 H           1 MOL       0.0446
     47 H9         -5.2440    5.0713   17.3264 H           1 MOL       0.0446
     48 H10        -2.0393    8.5907   15.4622 H           1 MOL       0.1373
     49 H11        -0.9204   10.9254   15.3330 H           1 MOL       0.0477
     50 H12         1.5542   12.3337   14.8454 H           1 MOL       0.0470
     51 H13        -1.1500   12.4997   13.5623 H           1 MOL       0.0643
     52 H14         0.3866   12.5391   12.6929 H           1 MOL       0.0643
     53 H15         0.9454   14.4885   14.0579 H           1 MOL       0.1864
     54 H16        -2.5792   17.1816   13.8557 H           1 MOL       0.0555
     55 H17         0.1368   20.3198   14.4471 H           1 MOL       0.0543
     56 H18        -2.7297   19.6395   16.3206 H           1 MOL       0.0601
     57 H19        -4.5563   21.2185   16.4206 H           1 MOL       0.0602
     58 H20        -2.4635   20.2340   12.1460 H           1 MOL       0.0601
     59 H21        -4.2963   21.8017   12.2568 H           1 MOL       0.0602
     60 H22         2.3241   16.3217   14.8087 H           1 MOL       0.2479
     61 H23         2.6544   18.4146   15.1427 H           1 MOL       0.2443
     62 H24        -0.8020    4.0107   19.7828 H           1 MOL       0.1019
@<TRIPOS>BOND
     1     1     2   1
     2    10     1   1
     3     1    13   1
     4     2     3   1
     5     2     4   1
     6     4     5   1
     7     6     4   1
     8    13     6   1
     9     6    14   1
    10    35     7   1
    11     8     9   2
    12    12     8   1
    13    10     9   1
    14    11    10   1
    15    12    11  ar
    16    11    38  ar
    17    12    35  ar
    18    14    15   2
    19    15    16   1
    20    16    17   1
    21    17    18  am
    22    18    19   2
    23    18    20   1
    24    20    21  ar
    25    20    31  ar
    26    21    22  ar
    27    22    23  ar
    28    22    24   1
    29    23    33  ar
    30    24    25  ar
    31    24    27  ar
    32    25    26  ar
    33    26    29  ar
    34    27    28  ar
    35    28    29  ar
    36    29    30   1
    37    31    32   1
    38    31    33  ar
    39    33    34   1
    40    35    36  ar
    41    36    37  ar
    42    37    38  ar
    43     1    39   1
    44     2    40   1
    45     3    41   1
    46     4    42   1
    47     5    43   1
    48     6    44   1
    49     7    45   1
    50     7    46   1
    51     7    47   1
    52     9    48   1
    53    14    49   1
    54    15    50   1
    55    16    51   1
    56    16    52   1
    57    17    53   1
    58    21    54   1
    59    23    55   1
    60    25    56   1
    61    26    57   1
    62    27    58   1
    63    28    59   1
    64    32    60   1
    65    34    61   1
    66    37    62   1
@<TRIPOS>SUBSTRUCTURE
     1  MOL      1

