@<TRIPOS>MOLECULE
3nw9_ligand_056
    62    66
SMALL
GAST_HUCK
****
This file was generated by PARSER (from files_GN.cpp)

@<TRIPOS>ATOM
      1 C1         -4.8771   20.7889   14.1152 C.3         1 MOL       0.2034
      2 C2         -5.6722   20.6461   15.4261 C.3         1 MOL       0.1402
      3 O3         -6.4657   21.7626   15.7970 O.3         1 MOL      -0.3834
      4 C4         -4.5370   20.3378   16.4100 C.3         1 MOL       0.1189
      5 O5         -3.7847   21.5116   16.7287 O.3         1 MOL      -0.3846
      6 C6         -3.6411   19.3737   15.5701 C.3         1 MOL       0.1082
      7 C7         -8.3449   21.3330    9.0832 C.3         1 MOL      -0.0106
      8 N8         -6.7833   19.7368   11.2346 N.2         1 MOL      -0.2933
      9 C9         -6.0531   19.5071   12.3384 C.2         1 MOL       0.1151
     10 N10        -5.6993   20.6633   12.9441 N.pl3       1 MOL      -0.1882
     11 C11        -6.2520   21.6538   12.2191 C.ar        1 MOL       0.1683
     12 C12        -6.9294   21.0705   11.1511 C.ar        1 MOL       0.0876
     13 O13        -3.8652   19.7543   14.1937 O.3         1 MOL      -0.3296
     14 C14        -3.7272   17.9069   15.6424 C.2         1 MOL      -0.0658
     15 C15        -4.4716   17.1582   16.4711 C.2         1 MOL      -0.0744
     16 C16        -4.4140   15.6950   16.5310 C.3         1 MOL       0.0471
     17 N17        -5.0532   15.0731   15.4043 N.am        1 MOL      -0.2802
     18 C18        -6.0401   14.1792   15.4645 C.2         1 MOL       0.1986
     19 O19        -6.4891   13.7668   16.5259 O.2         1 MOL      -0.3908
     20 C20        -6.5411   13.6598   14.2842 C.ar        1 MOL       0.0720
     21 C21        -7.8625   13.9609   13.8882 C.ar        1 MOL      -0.0533
     22 C22        -8.3887   13.5405   12.6276 C.ar        1 MOL      -0.0339
     23 C23        -7.5220   12.7747   11.8086 C.ar        1 MOL      -0.0299
     24 C24        -9.7149   13.9077   12.1912 C.ar        1 MOL      -0.0299
     25 C25       -10.3469   15.1121   12.6107 C.ar        1 MOL      -0.0581
     26 C26       -11.6232   15.4915   12.1550 C.ar        1 MOL      -0.0288
     27 C27       -10.4646   13.0896   11.2887 C.ar        1 MOL      -0.0581
     28 C28       -11.7341   13.4671   10.8201 C.ar        1 MOL      -0.0288
     29 C29       -12.3201   14.6703   11.2474 C.ar        1 MOL       0.1316
     30 F30       -13.5028   15.0251   10.8148 F           1 MOL      -0.1840
     31 C31        -5.7300   12.8486   13.4627 C.ar        1 MOL       0.1393
     32 O32        -4.4606   12.5091   13.8165 O.3         1 MOL      -0.3302
     33 C33        -6.2313   12.4007   12.2216 C.ar        1 MOL       0.1232
     34 O34        -5.4702   11.6372   11.3858 O.3         1 MOL      -0.3356
     35 C35        -7.6013   21.8908   10.2248 C.ar        1 MOL       0.0444
     36 N38        -7.5504   23.2403   10.4218 N.ar        1 MOL      -0.2825
     37 C39        -6.8820   23.7948   11.4713 C.ar        1 MOL       0.0619
     38 N40        -6.2390   23.0075   12.3736 N.ar        1 MOL      -0.2608
     39 H1         -4.3622   21.7555   14.0920 H           1 MOL       0.0998
     40 H2         -6.3528   19.7797   15.3635 H           1 MOL       0.0678
     41 H3         -6.8541   22.0847   14.9584 H           1 MOL       0.2101
     42 H4         -4.9265   19.9281   17.3344 H           1 MOL       0.0667
     43 H5         -4.2907   22.2692   16.3557 H           1 MOL       0.2102
     44 H6         -2.6006   19.6088   15.8038 H           1 MOL       0.0749
     45 H7         -8.8136   22.1242    8.4963 H           1 MOL       0.0446
     46 H8         -9.1244   20.6614    9.4459 H           1 MOL       0.0446
     47 H9         -7.6648   20.7779    8.4368 H           1 MOL       0.0446
     48 H10        -5.7790   18.5734   12.6503 H           1 MOL       0.1373
     49 H11        -3.1328   17.4207   15.0038 H           1 MOL       0.0477
     50 H12        -5.0787   17.6030   17.1006 H           1 MOL       0.0470
     51 H13        -4.9261   15.3678   17.4450 H           1 MOL       0.0643
     52 H14        -3.3720   15.3487   16.5912 H           1 MOL       0.0643
     53 H15        -4.7344   15.3194   14.5291 H           1 MOL       0.1864
     54 H16        -8.4562   14.4932   14.5335 H           1 MOL       0.0555
     55 H17        -7.8153   12.4970   10.8710 H           1 MOL       0.0543
     56 H18        -9.8717   15.7506   13.2522 H           1 MOL       0.0601
     57 H19       -12.0429   16.3696   12.4751 H           1 MOL       0.0602
     58 H20       -10.0953   12.1915   10.9722 H           1 MOL       0.0601
     59 H21       -12.2407   12.8606   10.1649 H           1 MOL       0.0602
     60 H22        -3.9277   13.3305   13.7146 H           1 MOL       0.2479
     61 H23        -4.5491   11.6723   11.7217 H           1 MOL       0.2443
     62 H24        -6.8717   24.8098   11.5828 H           1 MOL       0.1019
@<TRIPOS>BOND
     1     1     2   1
     2    10     1   1
     3     1    13   1
     4     2     3   1
     5     2     4   1
     6     4     5   1
     7     6     4   1
     8    13     6   1
     9     6    14   1
    10    35     7   1
    11     8     9   2
    12    12     8   1
    13    10     9   1
    14    11    10   1
    15    12    11  ar
    16    11    38  ar
    17    12    35  ar
    18    14    15   2
    19    15    16   1
    20    16    17   1
    21    17    18  am
    22    18    19   2
    23    18    20   1
    24    20    21  ar
    25    20    31  ar
    26    21    22  ar
    27    22    23  ar
    28    22    24   1
    29    23    33  ar
    30    24    25  ar
    31    24    27  ar
    32    25    26  ar
    33    26    29  ar
    34    27    28  ar
    35    28    29  ar
    36    29    30   1
    37    31    32   1
    38    31    33  ar
    39    33    34   1
    40    35    36  ar
    41    36    37  ar
    42    37    38  ar
    43     1    39   1
    44     2    40   1
    45     3    41   1
    46     4    42   1
    47     5    43   1
    48     6    44   1
    49     7    45   1
    50     7    46   1
    51     7    47   1
    52     9    48   1
    53    14    49   1
    54    15    50   1
    55    16    51   1
    56    16    52   1
    57    17    53   1
    58    21    54   1
    59    23    55   1
    60    25    56   1
    61    26    57   1
    62    27    58   1
    63    28    59   1
    64    32    60   1
    65    34    61   1
    66    37    62   1
@<TRIPOS>SUBSTRUCTURE
     1  MOL      1

