@<TRIPOS>MOLECULE
3nw9_ligand_041
    62    66
SMALL
GAST_HUCK
****
This file was generated by PARSER (from files_GN.cpp)

@<TRIPOS>ATOM
      1 C1         -8.4481   20.8168   17.2302 C.3         1 MOL       0.2034
      2 C2         -7.1976   19.9963   17.6089 C.3         1 MOL       0.1402
      3 O3         -6.9350   19.9926   19.0133 O.3         1 MOL      -0.3834
      4 C4         -6.0975   20.7120   16.8034 C.3         1 MOL       0.1189
      5 O5         -5.4435   21.7186   17.5783 O.3         1 MOL      -0.3846
      6 C6         -6.8695   21.3629   15.6213 C.3         1 MOL       0.1082
      7 C7        -14.4352   19.5502   17.4491 C.3         1 MOL      -0.0106
      8 N8        -11.4317   18.8674   17.9085 N.2         1 MOL      -0.2933
      9 C9        -10.0968   19.0347   17.9184 C.2         1 MOL       0.1151
     10 N10        -9.7492   20.2359   17.4062 N.pl3       1 MOL      -0.1882
     11 C11       -10.8990   20.8440   17.0651 C.ar        1 MOL       0.1683
     12 C12       -11.9493   19.9875   17.3822 C.ar        1 MOL       0.0876
     13 O13        -8.2585   21.0714   15.8328 O.3         1 MOL      -0.3296
     14 C14        -6.4576   20.8734   14.3152 C.2         1 MOL      -0.0658
     15 C15        -5.2239   21.0856   13.8192 C.2         1 MOL      -0.0744
     16 C16        -4.7519   20.5386   12.5628 C.3         1 MOL       0.0471
     17 N17        -3.4493   19.9716   12.7361 N.am        1 MOL      -0.2802
     18 C18        -3.1389   18.8371   13.3521 C.2         1 MOL       0.1986
     19 O19        -4.0403   18.0916   13.7152 O.2         1 MOL      -0.3908
     20 C20        -1.8042   18.4705   13.5958 C.ar        1 MOL       0.0720
     21 C21        -1.4239   17.1043   13.6195 C.ar        1 MOL      -0.0533
     22 C22        -0.1211   16.6376   13.9699 C.ar        1 MOL      -0.0339
     23 C23         0.8291   17.6688   14.2276 C.ar        1 MOL      -0.0299
     24 C24         0.2197   15.2131   14.0679 C.ar        1 MOL      -0.0299
     25 C25         1.5410   14.7522   14.3621 C.ar        1 MOL      -0.0581
     26 C26         1.8672   13.3890   14.4745 C.ar        1 MOL      -0.0288
     27 C27        -0.7491   14.1783   13.8991 C.ar        1 MOL      -0.0581
     28 C28        -0.4300   12.8114   13.9947 C.ar        1 MOL      -0.0288
     29 C29         0.8798   12.4151   14.2886 C.ar        1 MOL       0.1316
     30 F30         1.1831   11.1455   14.4048 F           1 MOL      -0.1840
     31 C31        -0.8033   19.4350   13.8771 C.ar        1 MOL       0.1393
     32 O32        -1.0732   20.7712   13.9268 O.3         1 MOL      -0.3302
     33 C33         0.5116   19.0321   14.1520 C.ar        1 MOL       0.1232
     34 O34         1.4700   19.9663   14.3669 O.3         1 MOL      -0.3356
     35 C35       -13.2746   20.4024   17.1328 C.ar        1 MOL       0.0444
     36 N38       -13.4567   21.6359   16.5821 N.ar        1 MOL      -0.2825
     37 C39       -12.4163   22.4602   16.2737 C.ar        1 MOL       0.0619
     38 N40       -11.1376   22.0633   16.5128 N.ar        1 MOL      -0.2608
     39 H1         -8.4253   21.7682   17.7804 H           1 MOL       0.0998
     40 H2         -7.2925   18.9680   17.2485 H           1 MOL       0.0678
     41 H3         -6.6432   19.0805   19.2354 H           1 MOL       0.2101
     42 H4         -5.3406   19.9906   16.4822 H           1 MOL       0.0667
     43 H5         -5.0863   22.3604   16.9213 H           1 MOL       0.2102
     44 H6         -6.7736   22.4540   15.6426 H           1 MOL       0.0749
     45 H7        -15.3665   20.0420   17.1611 H           1 MOL       0.0446
     46 H8        -14.4672   19.3476   18.5208 H           1 MOL       0.0446
     47 H9        -14.3617   18.6049   16.9088 H           1 MOL       0.0446
     48 H10        -9.4488   18.3299   18.2755 H           1 MOL       0.1373
     49 H11        -7.0993   20.3199   13.7938 H           1 MOL       0.0477
     50 H12        -4.5847   21.6366   14.3464 H           1 MOL       0.0470
     51 H13        -4.6712   21.3623   11.8493 H           1 MOL       0.0643
     52 H14        -5.4372   19.8028   12.1309 H           1 MOL       0.0643
     53 H15        -2.7163   20.4896   12.3833 H           1 MOL       0.1864
     54 H16        -2.1311   16.4383   13.3486 H           1 MOL       0.0555
     55 H17         1.7845   17.4614   14.4927 H           1 MOL       0.0543
     56 H18         2.3104   15.3946   14.4948 H           1 MOL       0.0601
     57 H19         2.8239   13.1082   14.6909 H           1 MOL       0.0602
     58 H20        -1.7203   14.3848   13.7173 H           1 MOL       0.0601
     59 H21        -1.1543   12.1031   13.8598 H           1 MOL       0.0602
     60 H22        -1.0756   21.0028   14.8846 H           1 MOL       0.2479
     61 H23         2.1476   19.7947   13.6735 H           1 MOL       0.2443
     62 H24       -12.5976   23.3787   15.8665 H           1 MOL       0.1019
@<TRIPOS>BOND
     1     1     2   1
     2    10     1   1
     3     1    13   1
     4     2     3   1
     5     2     4   1
     6     4     5   1
     7     6     4   1
     8    13     6   1
     9     6    14   1
    10    35     7   1
    11     8     9   2
    12    12     8   1
    13    10     9   1
    14    11    10   1
    15    12    11  ar
    16    11    38  ar
    17    12    35  ar
    18    14    15   2
    19    15    16   1
    20    16    17   1
    21    17    18  am
    22    18    19   2
    23    18    20   1
    24    20    21  ar
    25    20    31  ar
    26    21    22  ar
    27    22    23  ar
    28    22    24   1
    29    23    33  ar
    30    24    25  ar
    31    24    27  ar
    32    25    26  ar
    33    26    29  ar
    34    27    28  ar
    35    28    29  ar
    36    29    30   1
    37    31    32   1
    38    31    33  ar
    39    33    34   1
    40    35    36  ar
    41    36    37  ar
    42    37    38  ar
    43     1    39   1
    44     2    40   1
    45     3    41   1
    46     4    42   1
    47     5    43   1
    48     6    44   1
    49     7    45   1
    50     7    46   1
    51     7    47   1
    52     9    48   1
    53    14    49   1
    54    15    50   1
    55    16    51   1
    56    16    52   1
    57    17    53   1
    58    21    54   1
    59    23    55   1
    60    25    56   1
    61    26    57   1
    62    27    58   1
    63    28    59   1
    64    32    60   1
    65    34    61   1
    66    37    62   1
@<TRIPOS>SUBSTRUCTURE
     1  MOL      1

