@<TRIPOS>MOLECULE
3nw9_ligand_006
    62    66
SMALL
GAST_HUCK
****
This file was generated by PARSER (from files_GN.cpp)

@<TRIPOS>ATOM
      1 C1         -4.4500   21.2491   13.8674 C.3         1 MOL       0.2034
      2 C2         -4.6862   20.5583   15.2251 C.3         1 MOL       0.1402
      3 O3         -5.6184   21.2531   16.0539 O.3         1 MOL      -0.3834
      4 C4         -3.2663   20.4664   15.8222 C.3         1 MOL       0.1189
      5 O5         -2.9711   21.5309   16.7187 O.3         1 MOL      -0.3846
      6 C6         -2.3511   20.5144   14.5590 C.3         1 MOL       0.1082
      7 C7         -8.4703   21.2913    9.2299 C.3         1 MOL      -0.0106
      8 N8         -6.6134   19.9182   11.3083 N.2         1 MOL      -0.2933
      9 C9         -5.7578   19.7913   12.3366 C.2         1 MOL       0.1151
     10 N10        -5.4383   20.9955   12.8576 N.pl3       1 MOL      -0.1882
     11 C11        -6.1307   21.9065   12.1475 C.ar        1 MOL       0.1683
     12 C12        -6.8648   21.2274   11.1760 C.ar        1 MOL       0.0876
     13 O13        -3.1920   20.7379   13.4192 O.3         1 MOL      -0.3296
     14 C14        -1.5759   19.3078   14.2941 C.2         1 MOL      -0.0658
     15 C15        -2.1424   18.0920   14.2138 C.2         1 MOL      -0.0744
     16 C16        -1.4309   16.8978   13.7938 C.3         1 MOL       0.0471
     17 N17        -2.1788   15.7115   14.0562 N.am        1 MOL      -0.2802
     18 C18        -3.4037   15.4651   13.6103 C.2         1 MOL       0.1986
     19 O19        -3.9769   16.2786   12.8915 O.2         1 MOL      -0.3908
     20 C20        -4.0518   14.2853   13.9077 C.ar        1 MOL       0.0720
     21 C21        -4.4448   13.4503   12.8337 C.ar        1 MOL      -0.0533
     22 C22        -5.1121   12.2317   13.0597 C.ar        1 MOL      -0.0339
     23 C23        -5.4148   11.8413   14.3759 C.ar        1 MOL      -0.0299
     24 C24        -5.4085   11.3911   11.9607 C.ar        1 MOL      -0.0299
     25 C25        -6.5148   11.6567   11.1270 C.ar        1 MOL      -0.0581
     26 C26        -6.7314   10.8836    9.9668 C.ar        1 MOL      -0.0288
     27 C27        -4.5238   10.3454   11.6252 C.ar        1 MOL      -0.0581
     28 C28        -4.7376    9.5757   10.4646 C.ar        1 MOL      -0.0288
     29 C29        -5.8424    9.8456    9.6382 C.ar        1 MOL       0.1316
     30 F30        -6.0366    9.1372    8.5564 F           1 MOL      -0.1840
     31 C31        -4.3596   13.8751   15.2304 C.ar        1 MOL       0.1393
     32 O32        -4.0799   14.6603   16.3125 O.3         1 MOL      -0.3302
     33 C33        -5.0476   12.6632   15.4587 C.ar        1 MOL       0.1232
     34 O34        -5.3676   12.2701   16.7179 O.3         1 MOL      -0.3356
     35 C35        -7.6614   21.9541   10.2696 C.ar        1 MOL       0.0444
     36 N38        -7.6575   23.3145   10.3781 N.ar        1 MOL      -0.2825
     37 C39        -6.9367   23.9688   11.3306 C.ar        1 MOL       0.0619
     38 N40        -6.1812   23.2637   12.2154 N.ar        1 MOL      -0.2608
     39 H1         -4.3356   22.3239   14.0330 H           1 MOL       0.0998
     40 H2         -5.0720   19.5443   15.0732 H           1 MOL       0.0678
     41 H3         -5.2585   22.1584   16.1490 H           1 MOL       0.2101
     42 H4         -3.1518   19.5365   16.3928 H           1 MOL       0.0667
     43 H5         -3.0180   22.3409   16.1764 H           1 MOL       0.2102
     44 H6         -1.6661   21.3609   14.6271 H           1 MOL       0.0749
     45 H7         -9.0094   22.0256    8.6239 H           1 MOL       0.0446
     46 H8         -9.1988   20.6293    9.6981 H           1 MOL       0.0446
     47 H9         -7.8244   20.7076    8.5718 H           1 MOL       0.0446
     48 H10        -5.3722   18.8979   12.6424 H           1 MOL       0.1373
     49 H11        -0.6042   19.3981   14.1128 H           1 MOL       0.0477
     50 H12        -3.1111   18.0090   14.4240 H           1 MOL       0.0470
     51 H13        -0.4791   16.8255   14.3329 H           1 MOL       0.0643
     52 H14        -1.2058   16.9631   12.7250 H           1 MOL       0.0643
     53 H15        -1.7501   15.0310   14.5984 H           1 MOL       0.1864
     54 H16        -4.2098   13.7188   11.8742 H           1 MOL       0.0555
     55 H17        -5.8974   10.9561   14.5646 H           1 MOL       0.0543
     56 H18        -7.1610   12.4217   11.3428 H           1 MOL       0.0601
     57 H19        -7.5323   11.0909    9.3633 H           1 MOL       0.0602
     58 H20        -3.7062   10.1523   12.2071 H           1 MOL       0.0601
     59 H21        -4.0785    8.8312   10.2223 H           1 MOL       0.0602
     60 H22        -3.1075   14.7632   16.3439 H           1 MOL       0.2479
     61 H23        -4.5079   12.0360   17.1353 H           1 MOL       0.2443
     62 H24        -6.9629   24.9860   11.3817 H           1 MOL       0.1019
@<TRIPOS>BOND
     1     1     2   1
     2    10     1   1
     3     1    13   1
     4     2     3   1
     5     2     4   1
     6     4     5   1
     7     6     4   1
     8    13     6   1
     9     6    14   1
    10    35     7   1
    11     8     9   2
    12    12     8   1
    13    10     9   1
    14    11    10   1
    15    12    11  ar
    16    11    38  ar
    17    12    35  ar
    18    14    15   2
    19    15    16   1
    20    16    17   1
    21    17    18  am
    22    18    19   2
    23    18    20   1
    24    20    21  ar
    25    20    31  ar
    26    21    22  ar
    27    22    23  ar
    28    22    24   1
    29    23    33  ar
    30    24    25  ar
    31    24    27  ar
    32    25    26  ar
    33    26    29  ar
    34    27    28  ar
    35    28    29  ar
    36    29    30   1
    37    31    32   1
    38    31    33  ar
    39    33    34   1
    40    35    36  ar
    41    36    37  ar
    42    37    38  ar
    43     1    39   1
    44     2    40   1
    45     3    41   1
    46     4    42   1
    47     5    43   1
    48     6    44   1
    49     7    45   1
    50     7    46   1
    51     7    47   1
    52     9    48   1
    53    14    49   1
    54    15    50   1
    55    16    51   1
    56    16    52   1
    57    17    53   1
    58    21    54   1
    59    23    55   1
    60    25    56   1
    61    26    57   1
    62    27    58   1
    63    28    59   1
    64    32    60   1
    65    34    61   1
    66    37    62   1
@<TRIPOS>SUBSTRUCTURE
     1  MOL      1

