@<TRIPOS>MOLECULE
3nw9_ligand_063
    62    66
SMALL
GAST_HUCK
****
This file was generated by PARSER (from files_GN.cpp)

@<TRIPOS>ATOM
      1 C1         -9.0067   11.6821   13.2838 C.3         1 MOL       0.2034
      2 C2         -8.8464   12.5162   14.5714 C.3         1 MOL       0.1402
      3 O3        -10.0823   12.7523   15.2424 O.3         1 MOL      -0.3834
      4 C4         -8.1940   13.7977   14.0340 C.3         1 MOL       0.1189
      5 O5         -9.1584   14.7127   13.5027 O.3         1 MOL      -0.3846
      6 C6         -7.2776   13.2383   12.9149 C.3         1 MOL       0.1082
      7 C7         -9.9819    5.6827   14.0625 C.3         1 MOL      -0.0106
      8 N8         -8.2054    8.2197   13.9221 N.2         1 MOL      -0.2933
      9 C9         -7.8804    9.5166   13.7745 C.2         1 MOL       0.1151
     10 N10        -8.9743   10.2653   13.5076 N.pl3       1 MOL      -0.1882
     11 C11       -10.0201    9.4198   13.4912 C.ar        1 MOL       0.1683
     12 C12        -9.5328    8.1413   13.7511 C.ar        1 MOL       0.0876
     13 O13        -7.9626   12.0881   12.3829 O.3         1 MOL      -0.3296
     14 C14        -5.9384   12.8632   13.3597 C.2         1 MOL      -0.0658
     15 C15        -5.0784   12.1737   12.5929 C.2         1 MOL      -0.0744
     16 C16        -3.7419   11.8252   13.0354 C.3         1 MOL       0.0471
     17 N17        -2.9535   13.0092   13.1745 N.am        1 MOL      -0.2802
     18 C18        -1.9502   13.2048   14.0202 C.2         1 MOL       0.1986
     19 O19        -1.6053   12.3286   14.8054 O.2         1 MOL      -0.3908
     20 C20        -1.2583   14.4130   13.9947 C.ar        1 MOL       0.0720
     21 C21        -1.9620   15.6369   13.8850 C.ar        1 MOL      -0.0533
     22 C22        -1.3111   16.9025   13.8121 C.ar        1 MOL      -0.0339
     23 C23         0.1092   16.8778   13.8509 C.ar        1 MOL      -0.0299
     24 C24        -2.0473   18.1462   13.7173 C.ar        1 MOL      -0.0299
     25 C25        -3.3811   18.1991   13.2164 C.ar        1 MOL      -0.0581
     26 C26        -4.1031   19.4067   13.1373 C.ar        1 MOL      -0.0288
     27 C27        -1.4838   19.3882   14.1278 C.ar        1 MOL      -0.0581
     28 C28        -2.1907   20.6043   14.0244 C.ar        1 MOL      -0.0288
     29 C29        -3.5066   20.6122   13.5384 C.ar        1 MOL       0.1316
     30 F30        -4.1725   21.7347   13.4692 F           1 MOL      -0.1840
     31 C31         0.1510   14.4536   14.0972 C.ar        1 MOL       0.1393
     32 O32         0.8991   13.3282   14.2033 O.3         1 MOL      -0.3302
     33 C33         0.8282   15.6830   14.0202 C.ar        1 MOL       0.1232
     34 O34         2.1792   15.7173   14.0621 O.3         1 MOL      -0.3356
     35 C35       -10.4341    7.0596   13.7952 C.ar        1 MOL       0.0444
     36 N38       -11.7542    7.3277   13.5848 N.ar        1 MOL      -0.2825
     37 C39       -12.2136    8.5861   13.3359 C.ar        1 MOL       0.0619
     38 N40       -11.3454    9.6320   13.2887 N.ar        1 MOL      -0.2608
     39 H1         -9.9516   11.9611   12.8065 H           1 MOL       0.0998
     40 H2         -8.1583   12.0245   15.2679 H           1 MOL       0.0678
     41 H3        -10.3874   11.8662   15.5292 H           1 MOL       0.2101
     42 H4         -7.6451   14.3191   14.8241 H           1 MOL       0.0667
     43 H5         -9.6091   14.2368   12.7739 H           1 MOL       0.2102
     44 H6         -7.1658   13.9779   12.1170 H           1 MOL       0.0749
     45 H7        -10.8241    4.9880   14.0622 H           1 MOL       0.0446
     46 H8         -9.4938    5.6360   15.0375 H           1 MOL       0.0446
     47 H9         -9.2738    5.3700   13.2932 H           1 MOL       0.0446
     48 H10        -6.9260    9.8740   13.8500 H           1 MOL       0.1373
     49 H11        -5.6434   13.1394   14.2702 H           1 MOL       0.0477
     50 H12        -5.3702   11.8662   11.6906 H           1 MOL       0.0470
     51 H13        -3.2623   11.1896   12.2891 H           1 MOL       0.0643
     52 H14        -3.8131   11.2596   13.9699 H           1 MOL       0.0643
     53 H15        -3.1320   13.7187   12.5352 H           1 MOL       0.1864
     54 H16        -2.9831   15.5937   13.9134 H           1 MOL       0.0555
     55 H17         0.6511   17.7367   13.7434 H           1 MOL       0.0543
     56 H18        -3.8521   17.3600   12.8767 H           1 MOL       0.0601
     57 H19        -5.0646   19.4017   12.7829 H           1 MOL       0.0602
     58 H20        -0.5459   19.4364   14.5255 H           1 MOL       0.0601
     59 H21        -1.7449   21.4789   14.3162 H           1 MOL       0.0602
     60 H22         1.0489   13.0576   13.2747 H           1 MOL       0.2479
     61 H23         2.3938   16.1430   14.9197 H           1 MOL       0.2443
     62 H24       -13.2105    8.7433   13.1865 H           1 MOL       0.1019
@<TRIPOS>BOND
     1     1     2   1
     2    10     1   1
     3     1    13   1
     4     2     3   1
     5     2     4   1
     6     4     5   1
     7     6     4   1
     8    13     6   1
     9     6    14   1
    10    35     7   1
    11     8     9   2
    12    12     8   1
    13    10     9   1
    14    11    10   1
    15    12    11  ar
    16    11    38  ar
    17    12    35  ar
    18    14    15   2
    19    15    16   1
    20    16    17   1
    21    17    18  am
    22    18    19   2
    23    18    20   1
    24    20    21  ar
    25    20    31  ar
    26    21    22  ar
    27    22    23  ar
    28    22    24   1
    29    23    33  ar
    30    24    25  ar
    31    24    27  ar
    32    25    26  ar
    33    26    29  ar
    34    27    28  ar
    35    28    29  ar
    36    29    30   1
    37    31    32   1
    38    31    33  ar
    39    33    34   1
    40    35    36  ar
    41    36    37  ar
    42    37    38  ar
    43     1    39   1
    44     2    40   1
    45     3    41   1
    46     4    42   1
    47     5    43   1
    48     6    44   1
    49     7    45   1
    50     7    46   1
    51     7    47   1
    52     9    48   1
    53    14    49   1
    54    15    50   1
    55    16    51   1
    56    16    52   1
    57    17    53   1
    58    21    54   1
    59    23    55   1
    60    25    56   1
    61    26    57   1
    62    27    58   1
    63    28    59   1
    64    32    60   1
    65    34    61   1
    66    37    62   1
@<TRIPOS>SUBSTRUCTURE
     1  MOL      1

