@<TRIPOS>MOLECULE
3nw9_ligand_040
    62    66
SMALL
GAST_HUCK
****
This file was generated by PARSER (from files_GN.cpp)

@<TRIPOS>ATOM
      1 C1         -7.3757   19.9886   17.3653 C.3         1 MOL       0.2034
      2 C2         -6.6411   19.1548   18.4454 C.3         1 MOL       0.1402
      3 O3         -6.3769   19.9405   19.6035 O.3         1 MOL      -0.3834
      4 C4         -5.3885   18.6328   17.7125 C.3         1 MOL       0.1189
      5 O5         -4.1549   18.9634   18.3477 O.3         1 MOL      -0.3846
      6 C6         -5.4809   19.2453   16.2945 C.3         1 MOL       0.1082
      7 C7        -13.4111   20.9885   17.0237 C.3         1 MOL      -0.0106
      8 N8        -10.9211   19.2277   17.4994 N.2         1 MOL      -0.2933
      9 C9         -9.6237   18.8873   17.5986 C.2         1 MOL       0.1151
     10 N10        -8.8144   19.9533   17.3897 N.pl3       1 MOL      -0.1882
     11 C11        -9.6303   20.9905   17.1212 C.ar        1 MOL       0.1683
     12 C12       -10.9430   20.5321   17.1996 C.ar        1 MOL       0.0876
     13 O13        -6.8838   19.4799   16.1165 O.3         1 MOL      -0.3296
     14 C14        -4.9639   18.4778   15.1603 C.2         1 MOL      -0.0658
     15 C15        -4.0624   17.5003   15.2173 C.2         1 MOL      -0.0744
     16 C16        -3.6308   16.7435   14.0503 C.3         1 MOL       0.0471
     17 N17        -2.4083   16.0463   14.3183 N.am        1 MOL      -0.2802
     18 C18        -2.1892   14.7312   14.3228 C.2         1 MOL       0.1986
     19 O19        -3.1105   13.9431   14.1391 O.2         1 MOL      -0.3908
     20 C20        -0.9204   14.2522   14.6471 C.ar        1 MOL       0.0720
     21 C21        -0.7704   13.1126   15.4767 C.ar        1 MOL      -0.0533
     22 C22         0.5042   12.6578   15.8952 C.ar        1 MOL      -0.0339
     23 C23         1.6475   13.3646   15.4635 C.ar        1 MOL      -0.0299
     24 C24         0.6452   11.5393   16.7659 C.ar        1 MOL      -0.0299
     25 C25         1.5261   10.4781   16.4458 C.ar        1 MOL      -0.0581
     26 C26         1.6986    9.3918   17.3227 C.ar        1 MOL      -0.0288
     27 C27        -0.0631   11.4801   17.9915 C.ar        1 MOL      -0.0581
     28 C28         0.1117   10.3974   18.8731 C.ar        1 MOL      -0.0288
     29 C29         0.9930    9.3520   18.5393 C.ar        1 MOL       0.1316
     30 F30         1.1592    8.3487   19.3595 F           1 MOL      -0.1840
     31 C31         0.2539   14.9170   14.2054 C.ar        1 MOL       0.1393
     32 O32         0.1875   15.9495   13.3236 O.3         1 MOL      -0.3302
     33 C33         1.5239   14.4853   14.6236 C.ar        1 MOL       0.1232
     34 O34         2.6253   15.1576   14.2240 O.3         1 MOL      -0.3356
     35 C35       -12.0035   21.4211   16.9477 C.ar        1 MOL       0.0444
     36 N38       -11.6846   22.7060   16.6211 N.ar        1 MOL      -0.2825
     37 C39       -10.3977   23.1393   16.5412 C.ar        1 MOL       0.0619
     38 N40        -9.3695   22.2836   16.7914 N.ar        1 MOL      -0.2608
     39 H1         -7.0406   21.0295   17.4507 H           1 MOL       0.0998
     40 H2         -7.2370   18.2911   18.7645 H           1 MOL       0.0678
     41 H3         -5.9084   19.3385   20.2167 H           1 MOL       0.2101
     42 H4         -5.4623   17.5366   17.6577 H           1 MOL       0.0667
     43 H5         -4.1172   18.3986   19.1465 H           1 MOL       0.2102
     44 H6         -4.9656   20.2177   16.2808 H           1 MOL       0.0749
     45 H7        -14.0840   21.8137   16.7809 H           1 MOL       0.0446
     46 H8        -13.6356   20.6398   18.0300 H           1 MOL       0.0446
     47 H9        -13.5880   20.1770   16.3144 H           1 MOL       0.0446
     48 H10        -9.3190   17.9316   17.7931 H           1 MOL       0.1373
     49 H11        -5.2775   18.7764   14.2601 H           1 MOL       0.0477
     50 H12        -3.6759   17.2386   16.1023 H           1 MOL       0.0470
     51 H13        -3.4211   17.4323   13.2263 H           1 MOL       0.0643
     52 H14        -4.4392   16.0770   13.7452 H           1 MOL       0.0643
     53 H15        -1.6576   16.6032   14.5499 H           1 MOL       0.1864
     54 H16        -1.6031   12.6162   15.8037 H           1 MOL       0.0555
     55 H17         2.5794   13.0791   15.7755 H           1 MOL       0.0543
     56 H18         2.0459   10.4842   15.5631 H           1 MOL       0.0601
     57 H19         2.3381    8.6343   17.0749 H           1 MOL       0.0602
     58 H20        -0.6946   12.2395   18.2627 H           1 MOL       0.0601
     59 H21        -0.3969   10.3756   19.7592 H           1 MOL       0.0602
     60 H22         0.4175   16.7475   13.8394 H           1 MOL       0.2479
     61 H23         2.8134   15.7773   14.9664 H           1 MOL       0.2443
     62 H24       -10.2028   24.1074   16.2851 H           1 MOL       0.1019
@<TRIPOS>BOND
     1     1     2   1
     2    10     1   1
     3     1    13   1
     4     2     3   1
     5     2     4   1
     6     4     5   1
     7     6     4   1
     8    13     6   1
     9     6    14   1
    10    35     7   1
    11     8     9   2
    12    12     8   1
    13    10     9   1
    14    11    10   1
    15    12    11  ar
    16    11    38  ar
    17    12    35  ar
    18    14    15   2
    19    15    16   1
    20    16    17   1
    21    17    18  am
    22    18    19   2
    23    18    20   1
    24    20    21  ar
    25    20    31  ar
    26    21    22  ar
    27    22    23  ar
    28    22    24   1
    29    23    33  ar
    30    24    25  ar
    31    24    27  ar
    32    25    26  ar
    33    26    29  ar
    34    27    28  ar
    35    28    29  ar
    36    29    30   1
    37    31    32   1
    38    31    33  ar
    39    33    34   1
    40    35    36  ar
    41    36    37  ar
    42    37    38  ar
    43     1    39   1
    44     2    40   1
    45     3    41   1
    46     4    42   1
    47     5    43   1
    48     6    44   1
    49     7    45   1
    50     7    46   1
    51     7    47   1
    52     9    48   1
    53    14    49   1
    54    15    50   1
    55    16    51   1
    56    16    52   1
    57    17    53   1
    58    21    54   1
    59    23    55   1
    60    25    56   1
    61    26    57   1
    62    27    58   1
    63    28    59   1
    64    32    60   1
    65    34    61   1
    66    37    62   1
@<TRIPOS>SUBSTRUCTURE
     1  MOL      1

