@<TRIPOS>MOLECULE
3nw9_ligand_026
    62    66
SMALL
GAST_HUCK
****
This file was generated by PARSER (from files_GN.cpp)

@<TRIPOS>ATOM
      1 C1         -6.6215   18.0112   18.7258 C.3         1 MOL       0.2034
      2 C2         -6.1904   17.0098   19.8222 C.3         1 MOL       0.1402
      3 O3         -5.8832   17.6498   21.0638 O.3         1 MOL      -0.3834
      4 C4         -5.0003   16.2499   19.1909 C.3         1 MOL       0.1189
      5 O5         -3.7781   16.3925   19.9149 O.3         1 MOL      -0.3846
      6 C6         -4.8804   16.8632   17.7700 C.3         1 MOL       0.1082
      7 C7        -12.3742   19.8175   19.7991 C.3         1 MOL      -0.0106
      8 N8        -10.1871   18.3211   18.1904 N.2         1 MOL      -0.2933
      9 C9         -8.9639   17.8691   17.8569 C.2         1 MOL       0.1151
     10 N10        -8.0312   18.2844   18.7429 N.pl3       1 MOL      -0.1882
     11 C11        -8.6831   19.0143   19.6641 C.ar        1 MOL       0.1683
     12 C12       -10.0294   19.0369   19.3133 C.ar        1 MOL       0.0876
     13 O13        -6.1792   17.4090   17.4994 O.3         1 MOL      -0.3296
     14 C14        -4.4842   15.9333   16.7259 C.2         1 MOL      -0.0658
     15 C15        -4.4108   16.2805   15.4315 C.2         1 MOL      -0.0744
     16 C16        -4.0680   15.3264   14.3913 C.3         1 MOL       0.0471
     17 N17        -2.7203   14.8709   14.5479 N.am        1 MOL      -0.2802
     18 C18        -2.1697   13.8263   13.9403 C.2         1 MOL       0.1986
     19 O19        -2.8216   13.0901   13.2105 O.2         1 MOL      -0.3908
     20 C20        -0.8653   13.4782   14.2590 C.ar        1 MOL       0.0720
     21 C21        -0.5928   12.1997   14.8054 C.ar        1 MOL      -0.0533
     22 C22         0.7174   11.8198   15.1767 C.ar        1 MOL      -0.0339
     23 C23         1.7738   12.7337   14.9612 C.ar        1 MOL      -0.0299
     24 C24         0.9635   10.5475   15.7618 C.ar        1 MOL      -0.0299
     25 C25         0.2449   10.1303   16.9093 C.ar        1 MOL      -0.0581
     26 C26         0.4833    8.8715   17.4907 C.ar        1 MOL      -0.0288
     27 C27         1.9296    9.6706   15.2158 C.ar        1 MOL      -0.0581
     28 C28         2.1679    8.4115   15.7950 C.ar        1 MOL      -0.0288
     29 C29         1.4473    8.0103   16.9340 C.ar        1 MOL       0.1316
     30 F30         1.6662    6.8403   17.4741 F           1 MOL      -0.1840
     31 C31         0.2107   14.3812   14.0756 C.ar        1 MOL       0.1393
     32 O32         0.0100   15.5992   13.5151 O.3         1 MOL      -0.3302
     33 C33         1.5267   14.0046   14.4091 C.ar        1 MOL       0.1232
     34 O34         2.5524   14.8526   14.1557 O.3         1 MOL      -0.3356
     35 C35       -10.9382   19.7494   20.1214 C.ar        1 MOL       0.0444
     36 N38       -10.4422   20.3868   21.2196 N.ar        1 MOL      -0.2825
     37 C39        -9.1215   20.3535   21.5485 C.ar        1 MOL       0.0619
     38 N40        -8.2402   19.6682   20.7689 N.ar        1 MOL      -0.2608
     39 H1         -6.0872   18.9617   18.8473 H           1 MOL       0.0998
     40 H2         -7.0046   16.3013   20.0120 H           1 MOL       0.0678
     41 H3         -5.1513   18.2802   20.8885 H           1 MOL       0.2101
     42 H4         -5.2471   15.1810   19.1463 H           1 MOL       0.0667
     43 H5         -3.9456   15.9639   20.7816 H           1 MOL       0.2102
     44 H6         -4.1513   17.6821   17.7922 H           1 MOL       0.0749
     45 H7        -12.9100   20.4194   20.5348 H           1 MOL       0.0446
     46 H8        -12.7990   18.8131   19.7944 H           1 MOL       0.0446
     47 H9        -12.5093   20.2689   18.8154 H           1 MOL       0.0446
     48 H10        -8.7840   17.2797   17.0407 H           1 MOL       0.1373
     49 H11        -4.2604   14.9951   16.9772 H           1 MOL       0.0477
     50 H12        -4.6338   17.2104   15.1590 H           1 MOL       0.0470
     51 H13        -4.1682   15.7872   13.4042 H           1 MOL       0.0643
     52 H14        -4.7743   14.4894   14.4447 H           1 MOL       0.0643
     53 H15        -2.1651   15.3348   15.1946 H           1 MOL       0.1864
     54 H16        -1.3670   11.5410   14.9469 H           1 MOL       0.0555
     55 H17         2.7305   12.4807   15.2143 H           1 MOL       0.0543
     56 H18        -0.4529   10.7464   17.3386 H           1 MOL       0.0601
     57 H19        -0.0471    8.5859   18.3200 H           1 MOL       0.0602
     58 H20         2.4556    9.9335   14.3777 H           1 MOL       0.0601
     59 H21         2.8641    7.7841   15.3851 H           1 MOL       0.0602
     60 H22         0.0355   16.2361   14.2688 H           1 MOL       0.2479
     61 H23         3.2175   14.6929   14.8596 H           1 MOL       0.2443
     62 H24        -8.7916   20.8446   22.3805 H           1 MOL       0.1019
@<TRIPOS>BOND
     1     1     2   1
     2    10     1   1
     3     1    13   1
     4     2     3   1
     5     2     4   1
     6     4     5   1
     7     6     4   1
     8    13     6   1
     9     6    14   1
    10    35     7   1
    11     8     9   2
    12    12     8   1
    13    10     9   1
    14    11    10   1
    15    12    11  ar
    16    11    38  ar
    17    12    35  ar
    18    14    15   2
    19    15    16   1
    20    16    17   1
    21    17    18  am
    22    18    19   2
    23    18    20   1
    24    20    21  ar
    25    20    31  ar
    26    21    22  ar
    27    22    23  ar
    28    22    24   1
    29    23    33  ar
    30    24    25  ar
    31    24    27  ar
    32    25    26  ar
    33    26    29  ar
    34    27    28  ar
    35    28    29  ar
    36    29    30   1
    37    31    32   1
    38    31    33  ar
    39    33    34   1
    40    35    36  ar
    41    36    37  ar
    42    37    38  ar
    43     1    39   1
    44     2    40   1
    45     3    41   1
    46     4    42   1
    47     5    43   1
    48     6    44   1
    49     7    45   1
    50     7    46   1
    51     7    47   1
    52     9    48   1
    53    14    49   1
    54    15    50   1
    55    16    51   1
    56    16    52   1
    57    17    53   1
    58    21    54   1
    59    23    55   1
    60    25    56   1
    61    26    57   1
    62    27    58   1
    63    28    59   1
    64    32    60   1
    65    34    61   1
    66    37    62   1
@<TRIPOS>SUBSTRUCTURE
     1  MOL      1

