@<TRIPOS>MOLECULE
3nw9_ligand_003
    62    66
SMALL
GAST_HUCK
****
This file was generated by PARSER (from files_GN.cpp)

@<TRIPOS>ATOM
      1 C1         -5.7393   21.4502   14.5145 C.3         1 MOL       0.2034
      2 C2         -6.8469   21.3484   15.5917 C.3         1 MOL       0.1402
      3 O3         -7.0001   22.5746   16.3092 O.3         1 MOL      -0.3834
      4 C4         -6.4229   20.1827   16.5033 C.3         1 MOL       0.1189
      5 O5         -6.5356   20.5109   17.8909 O.3         1 MOL      -0.3846
      6 C6         -4.9593   19.8652   16.0968 C.3         1 MOL       0.1082
      7 C7         -8.1599   20.8510    8.9230 C.3         1 MOL      -0.0106
      8 N8         -6.8272   19.7748   11.4962 N.2         1 MOL      -0.2933
      9 C9         -6.3243   19.7834   12.7388 C.2         1 MOL       0.1151
     10 N10        -6.1818   21.0412   13.2061 N.pl3       1 MOL      -0.1882
     11 C11        -6.6264   21.8537   12.2237 C.ar        1 MOL       0.1683
     12 C12        -7.0488   21.0553   11.1659 C.ar        1 MOL       0.0876
     13 O13        -4.6135   20.6881   14.9674 O.3         1 MOL      -0.3296
     14 C14        -4.7091   18.4699   15.7599 C.2         1 MOL      -0.0658
     15 C15        -4.9300   17.4292   16.5834 C.2         1 MOL      -0.0744
     16 C16        -4.7857   16.0399   16.1654 C.3         1 MOL       0.0471
     17 N17        -3.4720   15.7540   15.6774 N.am        1 MOL      -0.2802
     18 C18        -3.0053   15.9937   14.4585 C.2         1 MOL       0.1986
     19 O19        -3.6909   16.4260   13.5443 O.2         1 MOL      -0.3908
     20 C20        -1.6499   15.8244   14.2605 C.ar        1 MOL       0.0720
     21 C21        -1.1019   14.5327   14.4146 C.ar        1 MOL      -0.0533
     22 C22         0.2966   14.3108   14.4697 C.ar        1 MOL      -0.0339
     23 C23         1.1347   15.4535   14.3561 C.ar        1 MOL      -0.0299
     24 C24         0.8319   12.9788   14.6335 C.ar        1 MOL      -0.0299
     25 C25         0.0689   11.9292   15.2225 C.ar        1 MOL      -0.0581
     26 C26         0.5812   10.6244   15.3434 C.ar        1 MOL      -0.0288
     27 C27         2.1419   12.6537   14.2001 C.ar        1 MOL      -0.0581
     28 C28         2.6630   11.3567   14.3316 C.ar        1 MOL      -0.0288
     29 C29         1.8862   10.3364   14.8997 C.ar        1 MOL       0.1316
     30 F30         2.3669    9.1262   15.0169 F           1 MOL      -0.1840
     31 C31        -0.7878   16.9349   14.0792 C.ar        1 MOL       0.1393
     32 O32        -1.2584   18.2088   13.9248 O.3         1 MOL      -0.3302
     33 C33         0.6050   16.7459   14.1629 C.ar        1 MOL       0.1232
     34 O34         1.4325   17.8241   14.0897 O.3         1 MOL      -0.3356
     35 C35        -7.6214   21.6600   10.0316 C.ar        1 MOL       0.0444
     36 N38        -7.7172   23.0157   10.0202 N.ar        1 MOL      -0.2825
     37 C39        -7.2824   23.7880   11.0563 C.ar        1 MOL       0.0619
     38 N40        -6.7411   23.2073   12.1610 N.ar        1 MOL      -0.2608
     39 H1         -5.3886   22.4841   14.4485 H           1 MOL       0.0998
     40 H2         -7.8198   21.1266   15.1389 H           1 MOL       0.0678
     41 H3         -6.0890   22.9039   16.4695 H           1 MOL       0.2101
     42 H4         -7.0828   19.3290   16.3110 H           1 MOL       0.0667
     43 H5         -6.2078   19.7261   18.3738 H           1 MOL       0.2102
     44 H6         -4.2773   20.1471   16.9069 H           1 MOL       0.0749
     45 H7         -8.5557   21.4832    8.1263 H           1 MOL       0.0446
     46 H8         -8.9682   20.2165    9.2953 H           1 MOL       0.0446
     47 H9         -7.3787   20.2120    8.5057 H           1 MOL       0.0446
     48 H10        -6.0962   18.9367   13.2508 H           1 MOL       0.1373
     49 H11        -4.3567   18.2755   14.8576 H           1 MOL       0.0477
     50 H12        -5.2549   17.6094   17.5107 H           1 MOL       0.0470
     51 H13        -5.5363   15.7885   15.4151 H           1 MOL       0.0643
     52 H14        -4.9631   15.3860   17.0228 H           1 MOL       0.0643
     53 H15        -2.8328   15.4308   16.3365 H           1 MOL       0.1864
     54 H16        -1.7475   13.7400   14.4978 H           1 MOL       0.0555
     55 H17         2.1520   15.3640   14.4308 H           1 MOL       0.0543
     56 H18        -0.8764   12.0964   15.5883 H           1 MOL       0.0601
     57 H19         0.0018    9.8850   15.7628 H           1 MOL       0.0602
     58 H20         2.7287   13.3584   13.7587 H           1 MOL       0.0601
     59 H21         3.6073   11.1597   14.0045 H           1 MOL       0.0602
     60 H22        -1.8492   18.2021   13.1446 H           1 MOL       0.2479
     61 H23         2.1534   17.6631   14.7524 H           1 MOL       0.2443
     62 H24        -7.3833   24.8024   11.0157 H           1 MOL       0.1019
@<TRIPOS>BOND
     1     1     2   1
     2    10     1   1
     3     1    13   1
     4     2     3   1
     5     2     4   1
     6     4     5   1
     7     6     4   1
     8    13     6   1
     9     6    14   1
    10    35     7   1
    11     8     9   2
    12    12     8   1
    13    10     9   1
    14    11    10   1
    15    12    11  ar
    16    11    38  ar
    17    12    35  ar
    18    14    15   2
    19    15    16   1
    20    16    17   1
    21    17    18  am
    22    18    19   2
    23    18    20   1
    24    20    21  ar
    25    20    31  ar
    26    21    22  ar
    27    22    23  ar
    28    22    24   1
    29    23    33  ar
    30    24    25  ar
    31    24    27  ar
    32    25    26  ar
    33    26    29  ar
    34    27    28  ar
    35    28    29  ar
    36    29    30   1
    37    31    32   1
    38    31    33  ar
    39    33    34   1
    40    35    36  ar
    41    36    37  ar
    42    37    38  ar
    43     1    39   1
    44     2    40   1
    45     3    41   1
    46     4    42   1
    47     5    43   1
    48     6    44   1
    49     7    45   1
    50     7    46   1
    51     7    47   1
    52     9    48   1
    53    14    49   1
    54    15    50   1
    55    16    51   1
    56    16    52   1
    57    17    53   1
    58    21    54   1
    59    23    55   1
    60    25    56   1
    61    26    57   1
    62    27    58   1
    63    28    59   1
    64    32    60   1
    65    34    61   1
    66    37    62   1
@<TRIPOS>SUBSTRUCTURE
     1  MOL      1

