@<TRIPOS>MOLECULE
3nw9_ligand_030
    62    66
SMALL
GAST_HUCK
****
This file was generated by PARSER (from files_GN.cpp)

@<TRIPOS>ATOM
      1 C1         -1.0116    9.5825   18.9260 C.3         1 MOL       0.2034
      2 C2         -1.8135    8.8836   17.8110 C.3         1 MOL       0.1402
      3 O3         -1.9248    7.4875   18.0891 O.3         1 MOL      -0.3834
      4 C4         -0.9543    9.1420   16.5586 C.3         1 MOL       0.1189
      5 O5         -1.0124    8.0712   15.6133 O.3         1 MOL      -0.3846
      6 C6          0.4738    9.3484   17.1351 C.3         1 MOL       0.1082
      7 C7         -1.0067   15.3761   20.9113 C.3         1 MOL      -0.0106
      8 N8         -1.6486   13.1654   18.8321 N.2         1 MOL      -0.2933
      9 C9         -1.7155   11.9319   18.2935 C.2         1 MOL       0.1151
     10 N10        -1.1965   10.9996   19.1235 N.pl3       1 MOL      -0.1882
     11 C11        -0.8005   11.6667   20.2248 C.ar        1 MOL       0.1683
     12 C12        -1.0871   13.0149   20.0381 C.ar        1 MOL       0.0876
     13 O13         0.3559    9.3405   18.5719 O.3         1 MOL      -0.3296
     14 C14         1.1268   10.5651   16.6792 C.2         1 MOL      -0.0658
     15 C15         2.0983   10.5789   15.7512 C.2         1 MOL      -0.0744
     16 C16         2.8069   11.7903   15.3803 C.3         1 MOL       0.0471
     17 N17         1.9517   12.9075   15.1314 N.am        1 MOL      -0.2802
     18 C18         1.1881   13.0974   14.0594 C.2         1 MOL       0.1986
     19 O19         1.1715   12.2803   13.1414 O.2         1 MOL      -0.3908
     20 C20         0.3305   14.1727   14.0077 C.ar        1 MOL       0.0720
     21 C21        -1.0608   13.9414   13.9648 C.ar        1 MOL      -0.0533
     22 C22        -1.9853   15.0081   13.9924 C.ar        1 MOL      -0.0339
     23 C23        -1.5000   16.3298   14.0027 C.ar        1 MOL      -0.0299
     24 C24        -3.3710   14.7298   14.0753 C.ar        1 MOL      -0.0299
     25 C25        -4.0497   14.8540   15.3105 C.ar        1 MOL      -0.0581
     26 C26        -5.4018   14.4835   15.4284 C.ar        1 MOL      -0.0288
     27 C27        -4.0785   14.2377   12.9528 C.ar        1 MOL      -0.0581
     28 C28        -5.4321   13.8680   13.0661 C.ar        1 MOL      -0.0288
     29 C29        -6.0926   13.9825   14.3077 C.ar        1 MOL       0.1316
     30 F30        -7.3472   13.6331   14.4140 F           1 MOL      -0.1840
     31 C31         0.8003   15.5128   14.0488 C.ar        1 MOL       0.1393
     32 O32         2.1315   15.7778   14.0589 O.3         1 MOL      -0.3302
     33 C33        -0.1182   16.5863   14.0094 C.ar        1 MOL       0.1232
     34 O34         0.3344   17.8645   14.0027 O.3         1 MOL      -0.3356
     35 C35        -0.7616   13.9310   21.0542 C.ar        1 MOL       0.0444
     36 N38        -0.1862   13.4428   22.1892 N.ar        1 MOL      -0.2825
     37 C39         0.0776   12.1159   22.3590 C.ar        1 MOL       0.0619
     38 N40        -0.2233   11.2288   21.3746 N.ar        1 MOL      -0.2608
     39 H1         -1.2237    9.0800   19.8735 H           1 MOL       0.0998
     40 H2         -2.8220    9.2943   17.7165 H           1 MOL       0.0678
     41 H3         -2.4923    7.1256   17.3766 H           1 MOL       0.2101
     42 H4         -1.3190   10.0449   16.0510 H           1 MOL       0.0667
     43 H5         -1.9125    8.1325   15.2223 H           1 MOL       0.2102
     44 H6          1.0991    8.4809   16.8874 H           1 MOL       0.0749
     45 H7         -0.7253   15.9144   21.8189 H           1 MOL       0.0446
     46 H8         -2.0655   15.5595   20.7123 H           1 MOL       0.0446
     47 H9         -0.4167   15.7689   20.0820 H           1 MOL       0.0446
     48 H10        -2.1003   11.7584   17.3606 H           1 MOL       0.1373
     49 H11         0.8388   11.4266   17.0785 H           1 MOL       0.0477
     50 H12         2.3895    9.7235   15.3381 H           1 MOL       0.0470
     51 H13         3.4381   11.6140   14.5028 H           1 MOL       0.0643
     52 H14         3.4737   12.0607   16.2027 H           1 MOL       0.0643
     53 H15         1.8930   13.5840   15.8319 H           1 MOL       0.1864
     54 H16        -1.4087   12.9753   13.9700 H           1 MOL       0.0555
     55 H17        -2.1528   17.1193   14.0127 H           1 MOL       0.0543
     56 H18        -3.5546   15.1922   16.1435 H           1 MOL       0.0601
     57 H19        -5.8776   14.5633   16.3289 H           1 MOL       0.0602
     58 H20        -3.6126   14.1362   12.0479 H           1 MOL       0.0601
     59 H21        -5.9368   13.5113   12.2542 H           1 MOL       0.0602
     60 H22         2.3021   16.1860   14.9454 H           1 MOL       0.2479
     61 H23         0.2318   18.1624   13.0656 H           1 MOL       0.2443
     62 H24         0.5083   11.7920   23.2250 H           1 MOL       0.1019
@<TRIPOS>BOND
     1     1     2   1
     2    10     1   1
     3     1    13   1
     4     2     3   1
     5     2     4   1
     6     4     5   1
     7     6     4   1
     8    13     6   1
     9     6    14   1
    10    35     7   1
    11     8     9   2
    12    12     8   1
    13    10     9   1
    14    11    10   1
    15    12    11  ar
    16    11    38  ar
    17    12    35  ar
    18    14    15   2
    19    15    16   1
    20    16    17   1
    21    17    18  am
    22    18    19   2
    23    18    20   1
    24    20    21  ar
    25    20    31  ar
    26    21    22  ar
    27    22    23  ar
    28    22    24   1
    29    23    33  ar
    30    24    25  ar
    31    24    27  ar
    32    25    26  ar
    33    26    29  ar
    34    27    28  ar
    35    28    29  ar
    36    29    30   1
    37    31    32   1
    38    31    33  ar
    39    33    34   1
    40    35    36  ar
    41    36    37  ar
    42    37    38  ar
    43     1    39   1
    44     2    40   1
    45     3    41   1
    46     4    42   1
    47     5    43   1
    48     6    44   1
    49     7    45   1
    50     7    46   1
    51     7    47   1
    52     9    48   1
    53    14    49   1
    54    15    50   1
    55    16    51   1
    56    16    52   1
    57    17    53   1
    58    21    54   1
    59    23    55   1
    60    25    56   1
    61    26    57   1
    62    27    58   1
    63    28    59   1
    64    32    60   1
    65    34    61   1
    66    37    62   1
@<TRIPOS>SUBSTRUCTURE
     1  MOL      1

