@<TRIPOS>MOLECULE
3nw9_ligand_028
    62    66
SMALL
GAST_HUCK
****
This file was generated by PARSER (from files_GN.cpp)

@<TRIPOS>ATOM
      1 C1         -3.3800   20.2249   12.9309 C.3         1 MOL       0.2034
      2 C2         -2.6546   20.3502   14.2884 C.3         1 MOL       0.1402
      3 O3         -1.5420   21.2484   14.2513 O.3         1 MOL      -0.3834
      4 C4         -2.2039   18.9063   14.5810 C.3         1 MOL       0.1189
      5 O5         -0.8275   18.6849   14.2502 O.3         1 MOL      -0.3846
      6 C6         -3.1326   18.0363   13.6937 C.3         1 MOL       0.1082
      7 C7         -7.8913   23.8397   10.8977 C.3         1 MOL      -0.0106
      8 N8         -5.2876   23.2665   12.4178 N.2         1 MOL      -0.2933
      9 C9         -4.2321   22.5765   12.8809 C.2         1 MOL       0.1151
     10 N10        -4.3471   21.2510   12.6302 N.pl3       1 MOL      -0.1882
     11 C11        -5.5075   21.1064   11.9580 C.ar        1 MOL       0.1683
     12 C12        -6.0773   22.3691   11.8194 C.ar        1 MOL       0.0876
     13 O13        -4.0075   18.9321   13.0015 O.3         1 MOL      -0.3296
     14 C14        -3.9315   17.0802   14.4505 C.2         1 MOL      -0.0658
     15 C15        -3.5893   15.7867   14.5897 C.2         1 MOL      -0.0744
     16 C16        -4.3180   14.8354   15.4048 C.3         1 MOL       0.0471
     17 N17        -4.5478   13.6340   14.6560 N.am        1 MOL      -0.2802
     18 C18        -3.8716   12.4880   14.7419 C.2         1 MOL       0.1986
     19 O19        -2.9745   12.3845   15.5712 O.2         1 MOL      -0.3908
     20 C20        -4.1708   11.3905   13.9238 C.ar        1 MOL       0.0720
     21 C21        -4.0772   10.0739   14.4560 C.ar        1 MOL      -0.0533
     22 C22        -4.4000    8.9317   13.6884 C.ar        1 MOL      -0.0339
     23 C23        -4.8394    9.1135   12.3604 C.ar        1 MOL      -0.0299
     24 C24        -4.3097    7.6284   14.2456 C.ar        1 MOL      -0.0299
     25 C25        -5.4720    6.8437   14.4263 C.ar        1 MOL      -0.0581
     26 C26        -5.3899    5.5600   14.9948 C.ar        1 MOL      -0.0288
     27 C27        -3.0579    7.0926   14.6328 C.ar        1 MOL      -0.0581
     28 C28        -2.9753    5.8021   15.1930 C.ar        1 MOL      -0.0288
     29 C29        -4.1422    5.0378   15.3807 C.ar        1 MOL       0.1316
     30 F30        -4.0664    3.8487   15.9097 F           1 MOL      -0.1840
     31 C31        -4.5703   11.5291   12.5646 C.ar        1 MOL       0.1393
     32 O32        -4.5672   12.7230   11.9182 O.3         1 MOL      -0.3302
     33 C33        -4.9274   10.3991   11.7993 C.ar        1 MOL       0.1232
     34 O34        -5.3285   10.5085   10.5038 O.3         1 MOL      -0.3356
     35 C35        -7.2893   22.5153   11.1218 C.ar        1 MOL       0.0444
     36 N38        -7.8716   21.3877   10.6249 N.ar        1 MOL      -0.2825
     37 C39        -7.3148   20.1539   10.7754 C.ar        1 MOL       0.0619
     38 N40        -6.1302   20.0182   11.4316 N.ar        1 MOL      -0.2608
     39 H1         -2.6287   20.2195   12.1324 H           1 MOL       0.0998
     40 H2         -3.3634   20.6756   15.0551 H           1 MOL       0.0678
     41 H3         -1.9144   22.1449   14.3893 H           1 MOL       0.2101
     42 H4         -2.3147   18.6971   15.6485 H           1 MOL       0.0667
     43 H5         -0.7590   18.8215   13.2796 H           1 MOL       0.2102
     44 H6         -2.5412   17.5246   12.9274 H           1 MOL       0.0749
     45 H7         -8.8481   23.7437   10.3830 H           1 MOL       0.0446
     46 H8         -7.2241   24.4538   10.2901 H           1 MOL       0.0446
     47 H9         -8.0607   24.3482   11.8452 H           1 MOL       0.0446
     48 H10        -3.4605   23.0297   13.3616 H           1 MOL       0.1373
     49 H11        -4.7338   17.4225   14.9285 H           1 MOL       0.0477
     50 H12        -2.7376   15.4752   14.1814 H           1 MOL       0.0470
     51 H13        -5.2936   15.2232   15.7136 H           1 MOL       0.0643
     52 H14        -3.7366   14.6590   16.3140 H           1 MOL       0.0643
     53 H15        -5.2583   13.6757   13.9989 H           1 MOL       0.1864
     54 H16        -3.7979    9.9417   15.4326 H           1 MOL       0.0555
     55 H17        -5.0743    8.3004   11.7782 H           1 MOL       0.0543
     56 H18        -6.3908    7.2090   14.1613 H           1 MOL       0.0601
     57 H19        -6.2420    5.0093   15.1254 H           1 MOL       0.0602
     58 H20        -2.1967    7.6268   14.4975 H           1 MOL       0.0601
     59 H21        -2.0641    5.4230   15.4620 H           1 MOL       0.0602
     60 H22        -3.6945   13.1313   12.1178 H           1 MOL       0.2479
     61 H23        -6.2296   10.8975   10.5233 H           1 MOL       0.2443
     62 H24        -7.7806   19.3330   10.3857 H           1 MOL       0.1019
@<TRIPOS>BOND
     1     1     2   1
     2    10     1   1
     3     1    13   1
     4     2     3   1
     5     2     4   1
     6     4     5   1
     7     6     4   1
     8    13     6   1
     9     6    14   1
    10    35     7   1
    11     8     9   2
    12    12     8   1
    13    10     9   1
    14    11    10   1
    15    12    11  ar
    16    11    38  ar
    17    12    35  ar
    18    14    15   2
    19    15    16   1
    20    16    17   1
    21    17    18  am
    22    18    19   2
    23    18    20   1
    24    20    21  ar
    25    20    31  ar
    26    21    22  ar
    27    22    23  ar
    28    22    24   1
    29    23    33  ar
    30    24    25  ar
    31    24    27  ar
    32    25    26  ar
    33    26    29  ar
    34    27    28  ar
    35    28    29  ar
    36    29    30   1
    37    31    32   1
    38    31    33  ar
    39    33    34   1
    40    35    36  ar
    41    36    37  ar
    42    37    38  ar
    43     1    39   1
    44     2    40   1
    45     3    41   1
    46     4    42   1
    47     5    43   1
    48     6    44   1
    49     7    45   1
    50     7    46   1
    51     7    47   1
    52     9    48   1
    53    14    49   1
    54    15    50   1
    55    16    51   1
    56    16    52   1
    57    17    53   1
    58    21    54   1
    59    23    55   1
    60    25    56   1
    61    26    57   1
    62    27    58   1
    63    28    59   1
    64    32    60   1
    65    34    61   1
    66    37    62   1
@<TRIPOS>SUBSTRUCTURE
     1  MOL      1

