@<TRIPOS>MOLECULE
3nw9_ligand_037
    62    66
SMALL
GAST_HUCK
****
This file was generated by PARSER (from files_GN.cpp)

@<TRIPOS>ATOM
      1 C1         -5.4272   21.2055   14.2301 C.3         1 MOL       0.2034
      2 C2         -5.4534   20.1096   15.3412 C.3         1 MOL       0.1402
      3 O3         -6.0536   20.5916   16.5502 O.3         1 MOL      -0.3834
      4 C4         -3.9617   19.7727   15.5362 C.3         1 MOL       0.1189
      5 O5         -3.6058   19.4149   16.8714 O.3         1 MOL      -0.3846
      6 C6         -3.2939   21.0857   15.0873 C.3         1 MOL       0.1082
      7 C7         -8.4042   21.2826    8.8738 C.3         1 MOL      -0.0106
      8 N8         -6.9121   19.8691   11.1977 N.2         1 MOL      -0.2933
      9 C9         -6.2762   19.7249   12.3756 C.2         1 MOL       0.1151
     10 N10        -6.0979   20.9196   12.9883 N.pl3       1 MOL      -0.1882
     11 C11        -6.6128   21.8422   12.1534 C.ar        1 MOL       0.1683
     12 C12        -7.1480   21.1801   11.0515 C.ar        1 MOL       0.0876
     13 O13        -4.0464   21.4798   13.9339 O.3         1 MOL      -0.3296
     14 C14        -1.8681   21.0095   14.8179 C.2         1 MOL      -0.0658
     15 C15        -1.3077   20.2604   13.8460 C.2         1 MOL      -0.0744
     16 C16         0.1208   20.1966   13.6067 C.3         1 MOL       0.0471
     17 N17         0.6051   18.8751   13.8569 N.am        1 MOL      -0.2802
     18 C18         1.8639   18.5335   14.1093 C.2         1 MOL       0.1986
     19 O19         2.6907   19.4282   14.2551 O.2         1 MOL      -0.3908
     20 C20         2.2564   17.1886   14.1707 C.ar        1 MOL       0.0720
     21 C21         1.3012   16.1627   14.4145 C.ar        1 MOL      -0.0533
     22 C22         1.6496   14.7917   14.4699 C.ar        1 MOL      -0.0339
     23 C23         3.0021   14.4428   14.2627 C.ar        1 MOL      -0.0299
     24 C24         0.6651   13.7866   14.7126 C.ar        1 MOL      -0.0299
     25 C25        -0.5742   13.8038   14.0234 C.ar        1 MOL      -0.0581
     26 C26        -1.5521   12.8208   14.2605 C.ar        1 MOL      -0.0288
     27 C27         0.8894   12.7482   15.6522 C.ar        1 MOL      -0.0581
     28 C28        -0.0925   11.7681   15.8989 C.ar        1 MOL      -0.0288
     29 C29        -1.3144   11.8028   15.2011 C.ar        1 MOL       0.1316
     30 F30        -2.2248   10.8947   15.4270 F           1 MOL      -0.1840
     31 C31         3.6132   16.7908   13.9979 C.ar        1 MOL       0.1393
     32 O32         4.6210   17.6690   13.7581 O.3         1 MOL      -0.3302
     33 C33         3.9750   15.4319   14.0354 C.ar        1 MOL       0.1232
     34 O34         5.2604   15.0718   13.7977 O.3         1 MOL      -0.3356
     35 C35        -7.7836   21.9291   10.0429 C.ar        1 MOL       0.0444
     36 N38        -7.8154   23.2845   10.1885 N.ar        1 MOL      -0.2825
     37 C39        -7.2631   23.9161   11.2615 C.ar        1 MOL       0.0619
     38 N40        -6.6663   23.1950   12.2457 N.ar        1 MOL      -0.2608
     39 H1         -5.8507   22.1284   14.6458 H           1 MOL       0.0998
     40 H2         -6.0083   19.2181   15.0417 H           1 MOL       0.0678
     41 H3         -5.5218   21.3746   16.8099 H           1 MOL       0.2101
     42 H4         -3.6791   18.9541   14.8638 H           1 MOL       0.0667
     43 H5         -4.0682   18.5648   17.0341 H           1 MOL       0.2102
     44 H6         -3.4487   21.8434   15.8702 H           1 MOL       0.0749
     45 H7         -8.8852   22.0158    8.2239 H           1 MOL       0.0446
     46 H8         -9.1599   20.5699    9.2068 H           1 MOL       0.0446
     47 H9         -7.6455   20.7513    8.2982 H           1 MOL       0.0446
     48 H10        -5.9604   18.8231   12.7329 H           1 MOL       0.1373
     49 H11        -1.2727   21.5444   15.4054 H           1 MOL       0.0477
     50 H12        -1.9025   19.7143   13.2627 H           1 MOL       0.0470
     51 H13         0.6578   20.9342   14.2150 H           1 MOL       0.0643
     52 H14         0.3075   20.4304   12.5543 H           1 MOL       0.0643
     53 H15        -0.0275   18.1540   13.7161 H           1 MOL       0.1864
     54 H16         0.3272   16.4153   14.5866 H           1 MOL       0.0555
     55 H17         3.2812   13.4583   14.2520 H           1 MOL       0.0543
     56 H18        -0.7725   14.5295   13.3334 H           1 MOL       0.0601
     57 H19        -2.4374   12.8523   13.7504 H           1 MOL       0.0602
     58 H20         1.7638   12.7071   16.1831 H           1 MOL       0.0601
     59 H21         0.0821   11.0353   16.5911 H           1 MOL       0.0602
     60 H22         4.2846   18.2620   13.0610 H           1 MOL       0.2479
     61 H23         5.2798   14.8671   12.8408 H           1 MOL       0.2443
     62 H24        -7.3036   24.9314   11.3332 H           1 MOL       0.1019
@<TRIPOS>BOND
     1     1     2   1
     2    10     1   1
     3     1    13   1
     4     2     3   1
     5     2     4   1
     6     4     5   1
     7     6     4   1
     8    13     6   1
     9     6    14   1
    10    35     7   1
    11     8     9   2
    12    12     8   1
    13    10     9   1
    14    11    10   1
    15    12    11  ar
    16    11    38  ar
    17    12    35  ar
    18    14    15   2
    19    15    16   1
    20    16    17   1
    21    17    18  am
    22    18    19   2
    23    18    20   1
    24    20    21  ar
    25    20    31  ar
    26    21    22  ar
    27    22    23  ar
    28    22    24   1
    29    23    33  ar
    30    24    25  ar
    31    24    27  ar
    32    25    26  ar
    33    26    29  ar
    34    27    28  ar
    35    28    29  ar
    36    29    30   1
    37    31    32   1
    38    31    33  ar
    39    33    34   1
    40    35    36  ar
    41    36    37  ar
    42    37    38  ar
    43     1    39   1
    44     2    40   1
    45     3    41   1
    46     4    42   1
    47     5    43   1
    48     6    44   1
    49     7    45   1
    50     7    46   1
    51     7    47   1
    52     9    48   1
    53    14    49   1
    54    15    50   1
    55    16    51   1
    56    16    52   1
    57    17    53   1
    58    21    54   1
    59    23    55   1
    60    25    56   1
    61    26    57   1
    62    27    58   1
    63    28    59   1
    64    32    60   1
    65    34    61   1
    66    37    62   1
@<TRIPOS>SUBSTRUCTURE
     1  MOL      1

