@<TRIPOS>MOLECULE
3nw9_ligand_045
    62    66
SMALL
GAST_HUCK
****
This file was generated by PARSER (from files_GN.cpp)

@<TRIPOS>ATOM
      1 C1         -5.2864   21.2164   14.4909 C.3         1 MOL       0.2034
      2 C2         -6.2947   21.1022   15.6565 C.3         1 MOL       0.1402
      3 O3         -6.9998   22.3098   15.9274 O.3         1 MOL      -0.3834
      4 C4         -5.3994   20.6642   16.8244 C.3         1 MOL       0.1189
      5 O5         -4.7932   21.7715   17.4879 O.3         1 MOL      -0.3846
      6 C6         -4.3305   19.7979   16.1098 C.3         1 MOL       0.1082
      7 C7         -8.2227   21.0314    9.1061 C.3         1 MOL      -0.0106
      8 N8         -6.7092   19.7677   11.5054 N.2         1 MOL      -0.2933
      9 C9         -6.0920   19.6965   12.6974 C.2         1 MOL       0.1151
     10 N10        -5.8770   20.9269   13.2125 N.pl3       1 MOL      -0.1882
     11 C11        -6.3819   21.8035   12.3237 C.ar        1 MOL       0.1683
     12 C12        -6.9219   21.0707   11.2669 C.ar        1 MOL       0.0876
     13 O13        -4.1972   20.3143   14.7747 O.3         1 MOL      -0.3296
     14 C14        -4.6910   18.3858   16.0505 C.2         1 MOL      -0.0658
     15 C15        -3.8208   17.4188   15.7119 C.2         1 MOL      -0.0744
     16 C16        -4.1272   16.0081   15.9062 C.3         1 MOL       0.0471
     17 N17        -4.6215   15.6234   17.1923 N.am        1 MOL      -0.2802
     18 C18        -4.7089   16.3429   18.3218 C.2         1 MOL       0.1986
     19 O19        -4.3611   17.5257   18.2801 O.2         1 MOL      -0.3908
     20 C20        -5.2196   15.8114   19.5137 C.ar        1 MOL       0.0720
     21 C21        -6.2490   14.8322   19.4907 C.ar        1 MOL      -0.0533
     22 C22        -6.7581   14.2472   20.6696 C.ar        1 MOL      -0.0339
     23 C23        -6.2516   14.6649   21.9147 C.ar        1 MOL      -0.0299
     24 C24        -7.7595   13.2460   20.6087 C.ar        1 MOL      -0.0299
     25 C25        -9.0644   13.5590   20.1610 C.ar        1 MOL      -0.0581
     26 C26       -10.0704   12.5755   20.1511 C.ar        1 MOL      -0.0288
     27 C27        -7.4732   11.9235   21.0118 C.ar        1 MOL      -0.0581
     28 C28        -8.4767   10.9344   20.9919 C.ar        1 MOL      -0.0288
     29 C29        -9.7771   11.2647   20.5709 C.ar        1 MOL       0.1316
     30 F30       -10.7128   10.3554   20.5708 F           1 MOL      -0.1840
     31 C31        -4.7442   16.2238   20.7942 C.ar        1 MOL       0.1393
     32 O32        -3.7582   17.1453   20.9405 O.3         1 MOL      -0.3302
     33 C33        -5.2604   15.6600   21.9795 C.ar        1 MOL       0.1232
     34 O34        -4.8031   16.0487   23.1941 O.3         1 MOL      -0.3356
     35 C35        -7.5673   21.7501   10.2137 C.ar        1 MOL       0.0444
     36 N38        -7.6081   23.1133   10.2739 N.ar        1 MOL      -0.2825
     37 C39        -7.0572   23.8140   11.3048 C.ar        1 MOL       0.0619
     38 N40        -6.4525   23.1606   12.3329 N.ar        1 MOL      -0.2608
     39 H1         -4.8584   22.2240   14.4753 H           1 MOL       0.0998
     40 H2         -7.0279   20.3192   15.4513 H           1 MOL       0.0678
     41 H3         -6.3148   23.0065   15.9859 H           1 MOL       0.2101
     42 H4         -5.9643   20.1074   17.5754 H           1 MOL       0.0667
     43 H5         -4.6737   22.4593   16.8036 H           1 MOL       0.2102
     44 H6         -3.3714   19.9103   16.6329 H           1 MOL       0.0749
     45 H7         -8.6755   21.7304    8.3998 H           1 MOL       0.0446
     46 H8         -9.0072   20.3827    9.4994 H           1 MOL       0.0446
     47 H9         -7.4963   20.4196    8.5712 H           1 MOL       0.0446
     48 H10        -5.8237   18.8170   13.1396 H           1 MOL       0.1373
     49 H11        -5.5918   18.1202   16.3640 H           1 MOL       0.0477
     50 H12        -2.9036   17.6682   15.4306 H           1 MOL       0.0470
     51 H13        -3.2397   15.4074   15.6937 H           1 MOL       0.0643
     52 H14        -4.8928   15.7338   15.1689 H           1 MOL       0.0643
     53 H15        -4.9092   14.6927   17.2619 H           1 MOL       0.1864
     54 H16        -6.6397   14.5190   18.6025 H           1 MOL       0.0555
     55 H17        -6.6126   14.2579   22.7873 H           1 MOL       0.0543
     56 H18        -9.2950   14.5114   19.8648 H           1 MOL       0.0601
     57 H19       -11.0135   12.8210   19.8485 H           1 MOL       0.0602
     58 H20        -6.5303   11.6645   21.3216 H           1 MOL       0.0601
     59 H21        -8.2583    9.9832   21.2916 H           1 MOL       0.0602
     60 H22        -4.2171   17.9915   21.1311 H           1 MOL       0.2479
     61 H23        -5.4123   16.7629   23.4795 H           1 MOL       0.2443
     62 H24        -7.1144   24.8317   11.3114 H           1 MOL       0.1019
@<TRIPOS>BOND
     1     1     2   1
     2    10     1   1
     3     1    13   1
     4     2     3   1
     5     2     4   1
     6     4     5   1
     7     6     4   1
     8    13     6   1
     9     6    14   1
    10    35     7   1
    11     8     9   2
    12    12     8   1
    13    10     9   1
    14    11    10   1
    15    12    11  ar
    16    11    38  ar
    17    12    35  ar
    18    14    15   2
    19    15    16   1
    20    16    17   1
    21    17    18  am
    22    18    19   2
    23    18    20   1
    24    20    21  ar
    25    20    31  ar
    26    21    22  ar
    27    22    23  ar
    28    22    24   1
    29    23    33  ar
    30    24    25  ar
    31    24    27  ar
    32    25    26  ar
    33    26    29  ar
    34    27    28  ar
    35    28    29  ar
    36    29    30   1
    37    31    32   1
    38    31    33  ar
    39    33    34   1
    40    35    36  ar
    41    36    37  ar
    42    37    38  ar
    43     1    39   1
    44     2    40   1
    45     3    41   1
    46     4    42   1
    47     5    43   1
    48     6    44   1
    49     7    45   1
    50     7    46   1
    51     7    47   1
    52     9    48   1
    53    14    49   1
    54    15    50   1
    55    16    51   1
    56    16    52   1
    57    17    53   1
    58    21    54   1
    59    23    55   1
    60    25    56   1
    61    26    57   1
    62    27    58   1
    63    28    59   1
    64    32    60   1
    65    34    61   1
    66    37    62   1
@<TRIPOS>SUBSTRUCTURE
     1  MOL      1

