@<TRIPOS>MOLECULE
3nw9_ligand_022
    62    66
SMALL
GAST_HUCK
****
This file was generated by PARSER (from files_GN.cpp)

@<TRIPOS>ATOM
      1 C1         -4.9209   21.1998   13.9835 C.3         1 MOL       0.2034
      2 C2         -5.5498   20.7249   15.3136 C.3         1 MOL       0.1402
      3 O3         -6.3133   21.7337   15.9722 O.3         1 MOL      -0.3834
      4 C4         -4.3136   20.2706   16.0994 C.3         1 MOL       0.1189
      5 O5         -3.6685   21.3662   16.7538 O.3         1 MOL      -0.3846
      6 C6         -3.4113   19.6955   14.9821 C.3         1 MOL       0.1082
      7 C7         -8.5240   21.3215    9.0250 C.3         1 MOL      -0.0106
      8 N8         -6.8490   19.9104   11.2198 N.2         1 MOL      -0.2933
      9 C9         -6.0780   19.7733   12.3117 C.2         1 MOL       0.1151
     10 N10        -5.7587   20.9710   12.8420 N.pl3       1 MOL      -0.1882
     11 C11        -6.3685   21.8989   12.0781 C.ar        1 MOL       0.1683
     12 C12        -7.0493   21.2286   11.0650 C.ar        1 MOL       0.0876
     13 O13        -3.6549   20.5255   13.8300 O.3         1 MOL      -0.3296
     14 C14        -3.6675   18.3013   14.6374 C.2         1 MOL      -0.0658
     15 C15        -2.9063   17.6234   13.7642 C.2         1 MOL      -0.0744
     16 C16        -3.1835   16.2575   13.3587 C.3         1 MOL       0.0471
     17 N17        -3.2511   15.3699   14.4861 N.am        1 MOL      -0.2802
     18 C18        -2.4604   14.3397   14.7512 C.2         1 MOL       0.1986
     19 O19        -1.5371   14.0772   13.9983 O.2         1 MOL      -0.3908
     20 C20        -2.6650   13.5438   15.8862 C.ar        1 MOL       0.0720
     21 C21        -3.9757   13.3504   16.3991 C.ar        1 MOL      -0.0533
     22 C22        -4.2315   12.5090   17.5136 C.ar        1 MOL      -0.0339
     23 C23        -3.1496   11.8461   18.1228 C.ar        1 MOL      -0.0299
     24 C24        -5.5553   12.3065   17.9923 C.ar        1 MOL      -0.0299
     25 C25        -6.1081   11.0036   18.0520 C.ar        1 MOL      -0.0581
     26 C26        -7.4091   10.7968   18.5474 C.ar        1 MOL      -0.0288
     27 C27        -6.3351   13.3948   18.4464 C.ar        1 MOL      -0.0581
     28 C28        -7.6334   13.1870   18.9489 C.ar        1 MOL      -0.0288
     29 C29        -8.1729   11.8890   18.9963 C.ar        1 MOL       0.1316
     30 F30        -9.3783   11.6931   19.4640 F           1 MOL      -0.1840
     31 C31        -1.6013   12.8521   16.5241 C.ar        1 MOL       0.1393
     32 O32        -0.3011   12.9940   16.1346 O.3         1 MOL      -0.3302
     33 C33        -1.8425   12.0017   17.6263 C.ar        1 MOL       0.1232
     34 O34        -0.8314   11.3216   18.2380 O.3         1 MOL      -0.3356
     35 C35        -7.7825   21.9731   10.1193 C.ar        1 MOL       0.0444
     36 N38        -7.7805   23.3304   10.2493 N.ar        1 MOL      -0.2825
     37 C39        -7.1121   23.9691   11.2514 C.ar        1 MOL       0.0619
     38 N40        -6.4073   23.2529   12.1646 N.ar        1 MOL      -0.2608
     39 H1         -4.6876   22.2679   14.0694 H           1 MOL       0.0998
     40 H2         -6.2065   19.8655   15.1507 H           1 MOL       0.0678
     41 H3         -5.6968   22.4830   16.1033 H           1 MOL       0.2101
     42 H4         -4.5670   19.5248   16.8588 H           1 MOL       0.0667
     43 H5         -3.4878   22.0408   16.0625 H           1 MOL       0.2102
     44 H6         -2.3617   19.7921   15.2833 H           1 MOL       0.0749
     45 H7         -9.0475   22.0577    8.4136 H           1 MOL       0.0446
     46 H8         -9.2570   20.6302    9.4416 H           1 MOL       0.0446
     47 H9         -7.8323   20.7681    8.3890 H           1 MOL       0.0446
     48 H10        -5.7708   18.8663   12.6700 H           1 MOL       0.1373
     49 H11        -4.4426   17.8394   15.0588 H           1 MOL       0.0477
     50 H12        -2.1268   18.0795   13.3514 H           1 MOL       0.0470
     51 H13        -2.4293   15.9370   12.6269 H           1 MOL       0.0643
     52 H14        -4.1528   16.2300   12.8452 H           1 MOL       0.0643
     53 H15        -3.9456   15.5699   15.1294 H           1 MOL       0.1864
     54 H16        -4.7758   13.7915   15.9323 H           1 MOL       0.0555
     55 H17        -3.3008   11.2491   18.9370 H           1 MOL       0.0543
     56 H18        -5.5707   10.1957   17.7229 H           1 MOL       0.0601
     57 H19        -7.7936    9.8475   18.5789 H           1 MOL       0.0602
     58 H20        -5.9588   14.3452   18.4360 H           1 MOL       0.0601
     59 H21        -8.1832   13.9807   19.2859 H           1 MOL       0.0602
     60 H22        -0.1799   13.9628   16.0108 H           1 MOL       0.2479
     61 H23        -0.1417   11.1800   17.5466 H           1 MOL       0.2443
     62 H24        -7.1411   24.9850   11.3139 H           1 MOL       0.1019
@<TRIPOS>BOND
     1     1     2   1
     2    10     1   1
     3     1    13   1
     4     2     3   1
     5     2     4   1
     6     4     5   1
     7     6     4   1
     8    13     6   1
     9     6    14   1
    10    35     7   1
    11     8     9   2
    12    12     8   1
    13    10     9   1
    14    11    10   1
    15    12    11  ar
    16    11    38  ar
    17    12    35  ar
    18    14    15   2
    19    15    16   1
    20    16    17   1
    21    17    18  am
    22    18    19   2
    23    18    20   1
    24    20    21  ar
    25    20    31  ar
    26    21    22  ar
    27    22    23  ar
    28    22    24   1
    29    23    33  ar
    30    24    25  ar
    31    24    27  ar
    32    25    26  ar
    33    26    29  ar
    34    27    28  ar
    35    28    29  ar
    36    29    30   1
    37    31    32   1
    38    31    33  ar
    39    33    34   1
    40    35    36  ar
    41    36    37  ar
    42    37    38  ar
    43     1    39   1
    44     2    40   1
    45     3    41   1
    46     4    42   1
    47     5    43   1
    48     6    44   1
    49     7    45   1
    50     7    46   1
    51     7    47   1
    52     9    48   1
    53    14    49   1
    54    15    50   1
    55    16    51   1
    56    16    52   1
    57    17    53   1
    58    21    54   1
    59    23    55   1
    60    25    56   1
    61    26    57   1
    62    27    58   1
    63    28    59   1
    64    32    60   1
    65    34    61   1
    66    37    62   1
@<TRIPOS>SUBSTRUCTURE
     1  MOL      1

