@<TRIPOS>MOLECULE
3nw9_ligand_049
    62    66
SMALL
GAST_HUCK
****
This file was generated by PARSER (from files_GN.cpp)

@<TRIPOS>ATOM
      1 C1         -2.4842   10.7667   16.4457 C.3         1 MOL       0.2034
      2 C2         -1.1924    9.9349   16.6253 C.3         1 MOL       0.1402
      3 O3         -1.4339    8.6514   17.2026 O.3         1 MOL      -0.3834
      4 C4         -0.3252   10.8343   17.5162 C.3         1 MOL       0.1189
      5 O5         -0.6142   10.6320   18.9020 O.3         1 MOL      -0.3846
      6 C6         -0.7469   12.2487   17.0603 C.3         1 MOL       0.1082
      7 C7         -5.3785   10.5533   11.0302 C.3         1 MOL      -0.0106
      8 N8         -4.2189    9.3357   13.6193 N.2         1 MOL      -0.2933
      9 C9         -3.6021    9.2749   14.8119 C.2         1 MOL       0.1151
     10 N10        -3.1815   10.4962   15.2142 N.pl3       1 MOL      -0.1882
     11 C11        -3.5744   11.3606   14.2562 C.ar        1 MOL       0.1683
     12 C12        -4.2117   10.6249   13.2584 C.ar        1 MOL       0.0876
     13 O13        -2.1003   12.1506   16.5793 O.3         1 MOL      -0.3296
     14 C14         0.1557   12.8216   16.0681 C.2         1 MOL      -0.0658
     15 C15         0.0510   12.6586   14.7382 C.2         1 MOL      -0.0744
     16 C16         0.9493   13.3038   13.7957 C.3         1 MOL       0.0471
     17 N17         1.0058   14.7264   13.9614 N.am        1 MOL      -0.2802
     18 C18         0.0165   15.5980   13.7747 C.2         1 MOL       0.1986
     19 O19        -1.0780   15.1594   13.4305 O.2         1 MOL      -0.3908
     20 C20         0.1810   16.9795   13.9812 C.ar        1 MOL       0.0720
     21 C21        -0.9657   17.8080   14.1258 C.ar        1 MOL      -0.0533
     22 C22        -0.8611   19.2004   14.3455 C.ar        1 MOL      -0.0339
     23 C23         0.4133   19.7871   14.4478 C.ar        1 MOL      -0.0299
     24 C24        -2.0193   20.0074   14.4185 C.ar        1 MOL      -0.0299
     25 C25        -2.6949   20.3743   13.2326 C.ar        1 MOL      -0.0581
     26 C26        -3.8559   21.1668   13.2882 C.ar        1 MOL      -0.0288
     27 C27        -2.5140   20.4603   15.6612 C.ar        1 MOL      -0.0581
     28 C28        -3.6814   21.2460   15.7176 C.ar        1 MOL      -0.0288
     29 C29        -4.3567   21.5956   14.5311 C.ar        1 MOL       0.1316
     30 F30        -5.4481   22.3088   14.5827 F           1 MOL      -0.1840
     31 C31         1.4557   17.6134   14.0457 C.ar        1 MOL       0.1393
     32 O32         2.5937   16.9148   13.7790 O.3         1 MOL      -0.3302
     33 C33         1.5667   18.9990   14.3038 C.ar        1 MOL       0.1232
     34 O34         2.7756   19.6127   14.3968 O.3         1 MOL      -0.3356
     35 C35        -4.7173   11.2872   12.1226 C.ar        1 MOL       0.0444
     36 N38        -4.5771   12.6417   12.0653 N.ar        1 MOL      -0.2825
     37 C39        -3.9651   13.3519   13.0537 C.ar        1 MOL       0.0619
     38 N40        -3.4668   12.7107   14.1455 N.ar        1 MOL      -0.2608
     39 H1         -3.1666   10.5417   17.2721 H           1 MOL       0.0998
     40 H2         -0.7008    9.7942   15.6581 H           1 MOL       0.0678
     41 H3         -0.5487    8.2349   17.2860 H           1 MOL       0.2101
     42 H4          0.7398   10.6334   17.3634 H           1 MOL       0.0667
     43 H5         -1.5715   10.8166   19.0042 H           1 MOL       0.2102
     44 H6         -0.7587   12.9226   17.9222 H           1 MOL       0.0749
     45 H7         -5.7439   11.2363   10.2611 H           1 MOL       0.0446
     46 H8         -6.2267    9.9897   11.4210 H           1 MOL       0.0446
     47 H9         -4.6670    9.8608   10.5744 H           1 MOL       0.0446
     48 H10        -3.4711    8.4039   15.3304 H           1 MOL       0.1373
     49 H11         0.9002   13.3892   16.4095 H           1 MOL       0.0477
     50 H12        -0.6740   12.0877   14.3729 H           1 MOL       0.0470
     51 H13         0.6557   13.0690   12.7699 H           1 MOL       0.0643
     52 H14         1.9578   12.9093   13.9433 H           1 MOL       0.0643
     53 H15         1.8553   15.0779   14.2684 H           1 MOL       0.1864
     54 H16        -1.9011   17.3948   14.0850 H           1 MOL       0.0555
     55 H17         0.5060   20.7984   14.5882 H           1 MOL       0.0543
     56 H18        -2.3418   20.0775   12.3195 H           1 MOL       0.0601
     57 H19        -4.3355   21.4260   12.4232 H           1 MOL       0.0602
     58 H20        -2.0375   20.2131   16.5327 H           1 MOL       0.0601
     59 H21        -4.0406   21.5572   16.6228 H           1 MOL       0.0602
     60 H22         3.1947   17.5444   13.3380 H           1 MOL       0.2479
     61 H23         3.2126   19.4647   13.5330 H           1 MOL       0.2443
     62 H24        -3.8834   14.3672   12.9762 H           1 MOL       0.1019
@<TRIPOS>BOND
     1     1     2   1
     2    10     1   1
     3     1    13   1
     4     2     3   1
     5     2     4   1
     6     4     5   1
     7     6     4   1
     8    13     6   1
     9     6    14   1
    10    35     7   1
    11     8     9   2
    12    12     8   1
    13    10     9   1
    14    11    10   1
    15    12    11  ar
    16    11    38  ar
    17    12    35  ar
    18    14    15   2
    19    15    16   1
    20    16    17   1
    21    17    18  am
    22    18    19   2
    23    18    20   1
    24    20    21  ar
    25    20    31  ar
    26    21    22  ar
    27    22    23  ar
    28    22    24   1
    29    23    33  ar
    30    24    25  ar
    31    24    27  ar
    32    25    26  ar
    33    26    29  ar
    34    27    28  ar
    35    28    29  ar
    36    29    30   1
    37    31    32   1
    38    31    33  ar
    39    33    34   1
    40    35    36  ar
    41    36    37  ar
    42    37    38  ar
    43     1    39   1
    44     2    40   1
    45     3    41   1
    46     4    42   1
    47     5    43   1
    48     6    44   1
    49     7    45   1
    50     7    46   1
    51     7    47   1
    52     9    48   1
    53    14    49   1
    54    15    50   1
    55    16    51   1
    56    16    52   1
    57    17    53   1
    58    21    54   1
    59    23    55   1
    60    25    56   1
    61    26    57   1
    62    27    58   1
    63    28    59   1
    64    32    60   1
    65    34    61   1
    66    37    62   1
@<TRIPOS>SUBSTRUCTURE
     1  MOL      1

