@<TRIPOS>MOLECULE
3nw9_ligand_079
    62    66
SMALL
GAST_HUCK
****
This file was generated by PARSER (from files_GN.cpp)

@<TRIPOS>ATOM
      1 C1         -6.2362   20.1268   17.8281 C.3         1 MOL       0.2034
      2 C2         -5.9098   18.6330   17.6002 C.3         1 MOL       0.1402
      3 O3         -6.4777   17.7356   18.5559 O.3         1 MOL      -0.3834
      4 C4         -4.3802   18.6139   17.6860 C.3         1 MOL       0.1189
      5 O5         -3.9548   18.4837   19.0499 O.3         1 MOL      -0.3846
      6 C6         -3.9841   19.9972   17.1146 C.3         1 MOL       0.1082
      7 C7        -12.0854   21.3814   16.4244 C.3         1 MOL      -0.0106
      8 N8         -9.0494   21.8982   16.3908 N.2         1 MOL      -0.2933
      9 C9         -7.7409   21.7100   16.6275 C.2         1 MOL       0.1151
     10 N10        -7.5177   20.5884   17.3518 N.pl3       1 MOL      -0.1882
     11 C11        -8.7429   20.0562   17.5900 C.ar        1 MOL       0.1683
     12 C12        -9.6826   20.8738   16.9760 C.ar        1 MOL       0.0876
     13 O13        -5.1451   20.8386   17.2034 O.3         1 MOL      -0.3296
     14 C14        -3.4787   19.9318   15.7475 C.2         1 MOL      -0.0658
     15 C15        -4.2197   19.5516   14.6992 C.2         1 MOL      -0.0744
     16 C16        -3.6478   19.1980   13.4071 C.3         1 MOL       0.0471
     17 N17        -2.6406   18.1833   13.4920 N.am        1 MOL      -0.2802
     18 C18        -2.7714   16.9657   14.0237 C.2         1 MOL       0.1986
     19 O19        -3.8878   16.6697   14.4650 O.2         1 MOL      -0.3908
     20 C20        -1.7099   16.0538   14.1388 C.ar        1 MOL       0.0720
     21 C21        -1.9878   14.6808   14.4327 C.ar        1 MOL      -0.0533
     22 C22        -0.9801   13.6908   14.5528 C.ar        1 MOL      -0.0339
     23 C23         0.3526   14.1022   14.3363 C.ar        1 MOL      -0.0299
     24 C24        -1.3034   12.3373   14.9375 C.ar        1 MOL      -0.0299
     25 C25        -2.5337   11.7286   14.5763 C.ar        1 MOL      -0.0581
     26 C26        -2.8866   10.4464   15.0397 C.ar        1 MOL      -0.0288
     27 C27        -0.4182   11.5739   15.7487 C.ar        1 MOL      -0.0581
     28 C28        -0.7561   10.2808   16.1918 C.ar        1 MOL      -0.0288
     29 C29        -1.9978    9.7197   15.8541 C.ar        1 MOL       0.1316
     30 F30        -2.3191    8.5305   16.2801 F           1 MOL      -0.1840
     31 C31        -0.3373   16.4203   14.0141 C.ar        1 MOL       0.1393
     32 O32         0.0713   17.7075   13.8748 O.3         1 MOL      -0.3302
     33 C33         0.6790   15.4485   14.1050 C.ar        1 MOL       0.1232
     34 O34         1.9859   15.7946   13.9969 O.3         1 MOL      -0.3356
     35 C35       -11.0533   20.5490   17.0540 C.ar        1 MOL       0.0444
     36 N38       -11.3947   19.4190   17.7422 N.ar        1 MOL      -0.2825
     37 C39       -10.4632   18.6314   18.3443 C.ar        1 MOL       0.0619
     38 N40        -9.1415   18.9476   18.2739 N.ar        1 MOL      -0.2608
     39 H1         -6.1858   20.3319   18.9029 H           1 MOL       0.0998
     40 H2         -6.2313   18.3312   16.6006 H           1 MOL       0.0678
     41 H3         -7.4316   17.6823   18.3252 H           1 MOL       0.2101
     42 H4         -3.9661   17.7721   17.1140 H           1 MOL       0.0667
     43 H5         -2.9849   18.6299   19.0408 H           1 MOL       0.2102
     44 H6         -3.2026   20.4359   17.7426 H           1 MOL       0.0749
     45 H7        -13.0809   20.9655   16.5855 H           1 MOL       0.0446
     46 H8        -11.9047   21.4434   15.3503 H           1 MOL       0.0446
     47 H9        -12.0564   22.3864   16.8498 H           1 MOL       0.0446
     48 H10        -7.0267   22.3673   16.3086 H           1 MOL       0.1373
     49 H11        -2.5027   20.0805   15.6153 H           1 MOL       0.0477
     50 H12        -5.2013   19.4363   14.8114 H           1 MOL       0.0470
     51 H13        -3.2086   20.0954   12.9677 H           1 MOL       0.0643
     52 H14        -4.4358   18.8517   12.7349 H           1 MOL       0.0643
     53 H15        -1.7802   18.4041   13.1002 H           1 MOL       0.1864
     54 H16        -2.9583   14.4028   14.5910 H           1 MOL       0.0555
     55 H17         1.1152   13.4196   14.3607 H           1 MOL       0.0543
     56 H18        -3.1943   12.2136   13.9641 H           1 MOL       0.0601
     57 H19        -3.7871   10.0385   14.7761 H           1 MOL       0.0602
     58 H20         0.4752   11.9637   16.0585 H           1 MOL       0.0601
     59 H21        -0.0985    9.7547   16.7758 H           1 MOL       0.0602
     60 H22         0.1782   17.8494   12.9092 H           1 MOL       0.2479
     61 H23         2.1663   16.3869   14.7637 H           1 MOL       0.2443
     62 H24       -10.7625   17.7912   18.8464 H           1 MOL       0.1019
@<TRIPOS>BOND
     1     1     2   1
     2    10     1   1
     3     1    13   1
     4     2     3   1
     5     2     4   1
     6     4     5   1
     7     6     4   1
     8    13     6   1
     9     6    14   1
    10    35     7   1
    11     8     9   2
    12    12     8   1
    13    10     9   1
    14    11    10   1
    15    12    11  ar
    16    11    38  ar
    17    12    35  ar
    18    14    15   2
    19    15    16   1
    20    16    17   1
    21    17    18  am
    22    18    19   2
    23    18    20   1
    24    20    21  ar
    25    20    31  ar
    26    21    22  ar
    27    22    23  ar
    28    22    24   1
    29    23    33  ar
    30    24    25  ar
    31    24    27  ar
    32    25    26  ar
    33    26    29  ar
    34    27    28  ar
    35    28    29  ar
    36    29    30   1
    37    31    32   1
    38    31    33  ar
    39    33    34   1
    40    35    36  ar
    41    36    37  ar
    42    37    38  ar
    43     1    39   1
    44     2    40   1
    45     3    41   1
    46     4    42   1
    47     5    43   1
    48     6    44   1
    49     7    45   1
    50     7    46   1
    51     7    47   1
    52     9    48   1
    53    14    49   1
    54    15    50   1
    55    16    51   1
    56    16    52   1
    57    17    53   1
    58    21    54   1
    59    23    55   1
    60    25    56   1
    61    26    57   1
    62    27    58   1
    63    28    59   1
    64    32    60   1
    65    34    61   1
    66    37    62   1
@<TRIPOS>SUBSTRUCTURE
     1  MOL      1

