@<TRIPOS>MOLECULE
3nw9_ligand_010
    62    66
SMALL
GAST_HUCK
****
This file was generated by PARSER (from files_GN.cpp)

@<TRIPOS>ATOM
      1 C1         -4.2173   19.0894   15.1213 C.3         1 MOL       0.2034
      2 C2         -3.7068   20.3911   15.7867 C.3         1 MOL       0.1402
      3 O3         -4.7569   21.1328   16.4116 O.3         1 MOL      -0.3834
      4 C4         -3.0648   21.1450   14.6128 C.3         1 MOL       0.1189
      5 O5         -4.0338   21.9365   13.9197 O.3         1 MOL      -0.3846
      6 C6         -2.5743   20.0088   13.6903 C.3         1 MOL       0.1082
      7 C7         -4.9622   14.7739   19.4344 C.3         1 MOL      -0.0106
      8 N8         -4.2360   15.7877   16.6067 N.2         1 MOL      -0.2933
      9 C9         -4.0329   16.6552   15.6000 C.2         1 MOL       0.1151
     10 N10        -4.2875   17.9302   15.9784 N.pl3       1 MOL      -0.1882
     11 C11        -4.6889   17.8584   17.2667 C.ar        1 MOL       0.1683
     12 C12        -4.6408   16.5210   17.6511 C.ar        1 MOL       0.0876
     13 O13        -3.3543   18.8453   13.9922 O.3         1 MOL      -0.3296
     14 C14        -1.1471   19.7163   13.7804 C.2         1 MOL      -0.0658
     15 C15        -0.5591   19.0837   14.8182 C.2         1 MOL      -0.0744
     16 C16         0.7815   18.5259   14.7367 C.3         1 MOL       0.0471
     17 N17         0.8178   17.0880   14.7730 N.am        1 MOL      -0.2802
     18 C18        -0.0188   16.2261   14.1873 C.2         1 MOL       0.1986
     19 O19        -0.9973   16.6313   13.5723 O.2         1 MOL      -0.3908
     20 C20         0.1477   14.8473   14.3178 C.ar        1 MOL       0.0720
     21 C21        -0.9907   14.0142   14.4365 C.ar        1 MOL      -0.0533
     22 C22        -0.8751   12.6112   14.5531 C.ar        1 MOL      -0.0339
     23 C23         0.4131   12.0338   14.5310 C.ar        1 MOL      -0.0299
     24 C24        -2.0328   11.8005   14.6970 C.ar        1 MOL      -0.0299
     25 C25        -2.1584   10.9194   15.7954 C.ar        1 MOL      -0.0581
     26 C26        -3.3012   10.1135   15.9381 C.ar        1 MOL      -0.0288
     27 C27        -3.0764   11.8562   13.7414 C.ar        1 MOL      -0.0581
     28 C28        -4.2122   11.0396   13.8787 C.ar        1 MOL      -0.0288
     29 C29        -4.3257   10.1714   14.9774 C.ar        1 MOL       0.1316
     30 F30        -5.3835    9.4160   15.1076 F           1 MOL      -0.1840
     31 C31         1.4292   14.2419   14.3144 C.ar        1 MOL       0.1393
     32 O32         2.5468   14.9924   14.1245 O.3         1 MOL      -0.3302
     33 C33         1.5562   12.8387   14.4008 C.ar        1 MOL       0.1232
     34 O34         2.7638   12.2236   14.3302 O.3         1 MOL      -0.3356
     35 C35        -4.9995   16.1673   18.9655 C.ar        1 MOL       0.0444
     36 N38        -5.3855   17.1697   19.8063 N.ar        1 MOL      -0.2825
     37 C39        -5.4337   18.4717   19.4134 C.ar        1 MOL       0.0619
     38 N40        -5.0855   18.8157   18.1438 N.ar        1 MOL      -0.2608
     39 H1         -5.2228   19.2638   14.7291 H           1 MOL       0.0998
     40 H2         -2.9479   20.1682   16.5443 H           1 MOL       0.0678
     41 H3         -4.4850   22.0816   16.3581 H           1 MOL       0.2101
     42 H4         -2.2474   21.7904   14.9491 H           1 MOL       0.0667
     43 H5         -4.3415   22.5949   14.5880 H           1 MOL       0.2102
     44 H6         -2.7880   20.2705   12.6463 H           1 MOL       0.0749
     45 H7         -5.2482   14.7064   20.4876 H           1 MOL       0.0446
     46 H8         -3.9525   14.3718   19.3246 H           1 MOL       0.0446
     47 H9         -5.6541   14.1658   18.8482 H           1 MOL       0.0446
     48 H10        -3.7427   16.3650   14.6616 H           1 MOL       0.1373
     49 H11        -0.5938   19.9288   12.9886 H           1 MOL       0.0477
     50 H12        -1.1088   18.8522   15.6206 H           1 MOL       0.0470
     51 H13         1.3458   18.8987   15.5953 H           1 MOL       0.0643
     52 H14         1.3038   18.8568   13.8373 H           1 MOL       0.0643
     53 H15         1.5663   16.7071   15.2702 H           1 MOL       0.1864
     54 H16        -1.9245   14.4387   14.4733 H           1 MOL       0.0555
     55 H17         0.5240   11.0194   14.5945 H           1 MOL       0.0543
     56 H18        -1.4240   10.8700   16.5084 H           1 MOL       0.0601
     57 H19        -3.3802    9.4896   16.7414 H           1 MOL       0.0602
     58 H20        -3.0058   12.4786   12.9301 H           1 MOL       0.0601
     59 H21        -4.9509   11.0812   13.1756 H           1 MOL       0.0602
     60 H22         3.1297   14.7749   14.8862 H           1 MOL       0.2479
     61 H23         3.4151   12.8665   14.6894 H           1 MOL       0.2443
     62 H24        -5.7289   19.1930   20.0742 H           1 MOL       0.1019
@<TRIPOS>BOND
     1     1     2   1
     2    10     1   1
     3     1    13   1
     4     2     3   1
     5     2     4   1
     6     4     5   1
     7     6     4   1
     8    13     6   1
     9     6    14   1
    10    35     7   1
    11     8     9   2
    12    12     8   1
    13    10     9   1
    14    11    10   1
    15    12    11  ar
    16    11    38  ar
    17    12    35  ar
    18    14    15   2
    19    15    16   1
    20    16    17   1
    21    17    18  am
    22    18    19   2
    23    18    20   1
    24    20    21  ar
    25    20    31  ar
    26    21    22  ar
    27    22    23  ar
    28    22    24   1
    29    23    33  ar
    30    24    25  ar
    31    24    27  ar
    32    25    26  ar
    33    26    29  ar
    34    27    28  ar
    35    28    29  ar
    36    29    30   1
    37    31    32   1
    38    31    33  ar
    39    33    34   1
    40    35    36  ar
    41    36    37  ar
    42    37    38  ar
    43     1    39   1
    44     2    40   1
    45     3    41   1
    46     4    42   1
    47     5    43   1
    48     6    44   1
    49     7    45   1
    50     7    46   1
    51     7    47   1
    52     9    48   1
    53    14    49   1
    54    15    50   1
    55    16    51   1
    56    16    52   1
    57    17    53   1
    58    21    54   1
    59    23    55   1
    60    25    56   1
    61    26    57   1
    62    27    58   1
    63    28    59   1
    64    32    60   1
    65    34    61   1
    66    37    62   1
@<TRIPOS>SUBSTRUCTURE
     1  MOL      1

