@<TRIPOS>MOLECULE
3nw9_ligand_059
    62    66
SMALL
GAST_HUCK
****
This file was generated by PARSER (from files_GN.cpp)

@<TRIPOS>ATOM
      1 C1          1.2974   12.1949   16.1994 C.3         1 MOL       0.2034
      2 C2          1.8774   11.9422   14.7862 C.3         1 MOL       0.1402
      3 O3          3.2854   11.6957   14.7704 O.3         1 MOL      -0.3834
      4 C4          1.4826   13.2074   13.9968 C.3         1 MOL       0.1189
      5 O5          2.5698   14.1220   13.8075 O.3         1 MOL      -0.3846
      6 C6          0.3767   13.8407   14.8763 C.3         1 MOL       0.1082
      7 C7          0.5494    6.8492   19.1391 C.3         1 MOL      -0.0106
      8 N8          0.1229    9.8771   18.7054 N.2         1 MOL      -0.2933
      9 C9          0.2269   11.0907   18.1372 C.2         1 MOL       0.1151
     10 N10         1.0014   11.0502   17.0257 N.pl3       1 MOL      -0.1882
     11 C11         1.4140    9.7749   16.9070 C.ar        1 MOL       0.1683
     12 C12         0.8555    9.0454   17.9539 C.ar        1 MOL       0.0876
     13 O13         0.0881   12.9008   15.9149 O.3         1 MOL      -0.3296
     14 C14        -0.8541   14.1282   14.1630 C.2         1 MOL      -0.0658
     15 C15        -1.2919   15.3745   13.9292 C.2         1 MOL      -0.0744
     16 C16        -2.5719   15.6309   13.2958 C.3         1 MOL       0.0471
     17 N17        -2.8154   17.0339   13.1719 N.am        1 MOL      -0.2802
     18 C18        -3.6410   17.7429   13.9277 C.2         1 MOL       0.1986
     19 O19        -4.2987   17.2591   14.8396 O.2         1 MOL      -0.3908
     20 C20        -3.8087   19.0836   13.6713 C.ar        1 MOL       0.0720
     21 C21        -4.8264   19.4921   12.7825 C.ar        1 MOL      -0.0533
     22 C22        -5.0276   20.8565   12.4661 C.ar        1 MOL      -0.0339
     23 C23        -4.1943   21.8171   13.0912 C.ar        1 MOL      -0.0299
     24 C24        -6.0400   21.2411   11.5403 C.ar        1 MOL      -0.0299
     25 C25        -5.7862   22.2165   10.5447 C.ar        1 MOL      -0.0581
     26 C26        -6.7801   22.5699    9.6129 C.ar        1 MOL      -0.0288
     27 C27        -7.3208   20.6346   11.5748 C.ar        1 MOL      -0.0581
     28 C28        -8.3127   20.9861   10.6423 C.ar        1 MOL      -0.0288
     29 C29        -8.0442   21.9541    9.6598 C.ar        1 MOL       0.1316
     30 F30        -8.9709   22.2780    8.7987 F           1 MOL      -0.1840
     31 C31        -2.9995   20.0596   14.2932 C.ar        1 MOL       0.1393
     32 O32        -2.0174   19.7048   15.1610 O.3         1 MOL      -0.3302
     33 C33        -3.2031   21.4243   14.0106 C.ar        1 MOL       0.1232
     34 O34        -2.4503   22.3719   14.6217 O.3         1 MOL      -0.3356
     35 C35         1.1227    7.6673   18.0581 C.ar        1 MOL       0.0444
     36 N38         1.9378    7.1080   17.1184 N.ar        1 MOL      -0.2825
     37 C39         2.4844    7.8338   16.1064 C.ar        1 MOL       0.0619
     38 N40         2.2217    9.1613   16.0054 N.ar        1 MOL      -0.2608
     39 H1          1.9680   12.8518   16.7647 H           1 MOL       0.0998
     40 H2          1.3737   11.0783   14.3431 H           1 MOL       0.0678
     41 H3          3.5914   11.8007   15.6959 H           1 MOL       0.2101
     42 H4          1.1127   12.9196   13.0079 H           1 MOL       0.0667
     43 H5          3.2584   13.8746   14.4591 H           1 MOL       0.2102
     44 H6          0.7574   14.7435   15.3670 H           1 MOL       0.0749
     45 H7          0.8721    5.8110   19.0521 H           1 MOL       0.0446
     46 H8         -0.5391    6.8823   19.0863 H           1 MOL       0.0446
     47 H9          0.8756    7.2375   20.1053 H           1 MOL       0.0446
     48 H10        -0.2371   11.9264   18.5037 H           1 MOL       0.1373
     49 H11        -1.4225   13.3618   13.8795 H           1 MOL       0.0477
     50 H12        -0.7289   16.1418   14.2225 H           1 MOL       0.0470
     51 H13        -3.3787   15.1355   13.8455 H           1 MOL       0.0643
     52 H14        -2.5627   15.2024   12.2930 H           1 MOL       0.0643
     53 H15        -2.2714   17.5232   12.5283 H           1 MOL       0.1864
     54 H16        -5.4240   18.7781   12.3554 H           1 MOL       0.0555
     55 H17        -4.3249   22.8150   12.9060 H           1 MOL       0.0543
     56 H18        -4.8667   22.6634   10.4764 H           1 MOL       0.0601
     57 H19        -6.5754   23.2711    8.8997 H           1 MOL       0.0602
     58 H20        -7.5452   19.9406   12.2926 H           1 MOL       0.0601
     59 H21        -9.2315   20.5416   10.6890 H           1 MOL       0.0602
     60 H22        -1.1912   19.8236   14.6481 H           1 MOL       0.2479
     61 H23        -2.5425   22.1883   15.5797 H           1 MOL       0.2443
     62 H24         3.0964    7.3914   15.4233 H           1 MOL       0.1019
@<TRIPOS>BOND
     1     1     2   1
     2    10     1   1
     3     1    13   1
     4     2     3   1
     5     2     4   1
     6     4     5   1
     7     6     4   1
     8    13     6   1
     9     6    14   1
    10    35     7   1
    11     8     9   2
    12    12     8   1
    13    10     9   1
    14    11    10   1
    15    12    11  ar
    16    11    38  ar
    17    12    35  ar
    18    14    15   2
    19    15    16   1
    20    16    17   1
    21    17    18  am
    22    18    19   2
    23    18    20   1
    24    20    21  ar
    25    20    31  ar
    26    21    22  ar
    27    22    23  ar
    28    22    24   1
    29    23    33  ar
    30    24    25  ar
    31    24    27  ar
    32    25    26  ar
    33    26    29  ar
    34    27    28  ar
    35    28    29  ar
    36    29    30   1
    37    31    32   1
    38    31    33  ar
    39    33    34   1
    40    35    36  ar
    41    36    37  ar
    42    37    38  ar
    43     1    39   1
    44     2    40   1
    45     3    41   1
    46     4    42   1
    47     5    43   1
    48     6    44   1
    49     7    45   1
    50     7    46   1
    51     7    47   1
    52     9    48   1
    53    14    49   1
    54    15    50   1
    55    16    51   1
    56    16    52   1
    57    17    53   1
    58    21    54   1
    59    23    55   1
    60    25    56   1
    61    26    57   1
    62    27    58   1
    63    28    59   1
    64    32    60   1
    65    34    61   1
    66    37    62   1
@<TRIPOS>SUBSTRUCTURE
     1  MOL      1

