@<TRIPOS>MOLECULE
3nw9_ligand_072
    62    66
SMALL
GAST_HUCK
****
This file was generated by PARSER (from files_GN.cpp)

@<TRIPOS>ATOM
      1 C1         -4.4842   11.5077   19.7954 C.3         1 MOL       0.2034
      2 C2         -5.8625   11.8270   19.1801 C.3         1 MOL       0.1402
      3 O3         -6.8730   12.0235   20.1694 O.3         1 MOL      -0.3834
      4 C4         -6.1327   10.6065   18.2884 C.3         1 MOL       0.1189
      5 O5         -6.8429    9.5958   19.0101 O.3         1 MOL      -0.3846
      6 C6         -4.7070   10.1198   17.9128 C.3         1 MOL       0.1082
      7 C7         -0.7685   16.1967   21.2437 C.3         1 MOL      -0.0106
      8 N8         -3.4206   14.5821   21.3720 N.2         1 MOL      -0.2933
      9 C9         -4.3012   13.6009   21.1254 C.2         1 MOL       0.1151
     10 N10        -3.7941   12.6795   20.2660 N.pl3       1 MOL      -0.1882
     11 C11        -2.5402   13.0900   19.9873 C.ar        1 MOL       0.1683
     12 C12        -2.3168   14.2850   20.6750 C.ar        1 MOL       0.0876
     13 O13        -3.7700   10.8021   18.7652 O.3         1 MOL      -0.3296
     14 C14        -4.3774   10.3132   16.5062 C.2         1 MOL      -0.0658
     15 C15        -4.0325   11.4978   15.9719 C.2         1 MOL      -0.0744
     16 C16        -3.8122   11.6907   14.5450 C.3         1 MOL       0.0471
     17 N17        -3.1097   12.8999   14.2452 N.am        1 MOL      -0.2802
     18 C18        -1.8332   13.1637   14.5505 C.2         1 MOL       0.1986
     19 O19        -1.1574   12.2509   15.0387 O.2         1 MOL      -0.3908
     20 C20        -1.2381   14.3994   14.2858 C.ar        1 MOL       0.0720
     21 C21        -2.0445   15.5620   14.1066 C.ar        1 MOL      -0.0533
     22 C22        -1.5095   16.8378   13.7882 C.ar        1 MOL      -0.0339
     23 C23        -0.0982   16.9468   13.7235 C.ar        1 MOL      -0.0299
     24 C24        -2.3662   17.9870   13.5756 C.ar        1 MOL      -0.0299
     25 C25        -3.7318   17.8303   13.2095 C.ar        1 MOL      -0.0581
     26 C26        -4.5778   18.9380   13.0208 C.ar        1 MOL      -0.0288
     27 C27        -1.8911   19.3190   13.7237 C.ar        1 MOL      -0.0581
     28 C28        -2.7299   20.4324   13.5083 C.ar        1 MOL      -0.0288
     29 C29        -4.0800   20.2430   13.1633 C.ar        1 MOL       0.1316
     30 F30        -4.8638   21.2723   12.9836 F           1 MOL      -0.1840
     31 C31         0.1717   14.5671   14.2079 C.ar        1 MOL       0.1393
     32 O32         1.0348   13.5282   14.3560 O.3         1 MOL      -0.3302
     33 C33         0.7282   15.8396   13.9655 C.ar        1 MOL       0.1232
     34 O34         2.0738   16.0102   13.9694 O.3         1 MOL      -0.3356
     35 C35        -1.0686   14.9269   20.5586 C.ar        1 MOL       0.0444
     36 N38        -0.1257   14.3303   19.7713 N.ar        1 MOL      -0.2825
     37 C39        -0.3555   13.1659   19.1100 C.ar        1 MOL       0.0619
     38 N40        -1.5662   12.5494   19.2149 N.ar        1 MOL      -0.2608
     39 H1         -4.6145   10.8214   20.6392 H           1 MOL       0.0998
     40 H2         -5.7931   12.7270   18.5576 H           1 MOL       0.0678
     41 H3         -7.7058   12.1577   19.6680 H           1 MOL       0.2101
     42 H4         -6.7351   10.8964   17.4182 H           1 MOL       0.0667
     43 H5         -6.9499    8.8557   18.3747 H           1 MOL       0.2102
     44 H6         -4.6212    9.0508   18.1352 H           1 MOL       0.0749
     45 H7          0.2698   16.4917   21.0766 H           1 MOL       0.0446
     46 H8         -0.9280   16.0889   22.3170 H           1 MOL       0.0446
     47 H9         -1.4164   16.9884   20.8649 H           1 MOL       0.0446
     48 H10        -5.2410   13.5661   21.5317 H           1 MOL       0.1373
     49 H11        -4.4432    9.5227   15.9030 H           1 MOL       0.0477
     50 H12        -3.9368   12.2851   16.5748 H           1 MOL       0.0470
     51 H13        -4.7962   11.7378   14.0628 H           1 MOL       0.0643
     52 H14        -3.2666   10.8425   14.1149 H           1 MOL       0.0643
     53 H15        -3.6032   13.5912   13.7620 H           1 MOL       0.1864
     54 H16        -3.0529   15.4754   14.2505 H           1 MOL       0.0555
     55 H17         0.3556   17.8349   13.4790 H           1 MOL       0.0543
     56 H18        -4.1300   16.9022   13.0464 H           1 MOL       0.0601
     57 H19        -5.5648   18.7897   12.7734 H           1 MOL       0.0602
     58 H20        -0.9277   19.5110   14.0056 H           1 MOL       0.0601
     59 H21        -2.3569   21.3820   13.6178 H           1 MOL       0.0602
     60 H22         1.3960   13.3882   13.4535 H           1 MOL       0.2479
     61 H23         2.2684   16.4096   14.8440 H           1 MOL       0.2443
     62 H24         0.3787   12.7542   18.5332 H           1 MOL       0.1019
@<TRIPOS>BOND
     1     1     2   1
     2    10     1   1
     3     1    13   1
     4     2     3   1
     5     2     4   1
     6     4     5   1
     7     6     4   1
     8    13     6   1
     9     6    14   1
    10    35     7   1
    11     8     9   2
    12    12     8   1
    13    10     9   1
    14    11    10   1
    15    12    11  ar
    16    11    38  ar
    17    12    35  ar
    18    14    15   2
    19    15    16   1
    20    16    17   1
    21    17    18  am
    22    18    19   2
    23    18    20   1
    24    20    21  ar
    25    20    31  ar
    26    21    22  ar
    27    22    23  ar
    28    22    24   1
    29    23    33  ar
    30    24    25  ar
    31    24    27  ar
    32    25    26  ar
    33    26    29  ar
    34    27    28  ar
    35    28    29  ar
    36    29    30   1
    37    31    32   1
    38    31    33  ar
    39    33    34   1
    40    35    36  ar
    41    36    37  ar
    42    37    38  ar
    43     1    39   1
    44     2    40   1
    45     3    41   1
    46     4    42   1
    47     5    43   1
    48     6    44   1
    49     7    45   1
    50     7    46   1
    51     7    47   1
    52     9    48   1
    53    14    49   1
    54    15    50   1
    55    16    51   1
    56    16    52   1
    57    17    53   1
    58    21    54   1
    59    23    55   1
    60    25    56   1
    61    26    57   1
    62    27    58   1
    63    28    59   1
    64    32    60   1
    65    34    61   1
    66    37    62   1
@<TRIPOS>SUBSTRUCTURE
     1  MOL      1

