@<TRIPOS>MOLECULE
3nw9_ligand_023
    62    66
SMALL
GAST_HUCK
****
This file was generated by PARSER (from files_GN.cpp)

@<TRIPOS>ATOM
      1 C1         -7.2454   10.4732   11.6039 C.3         1 MOL       0.2034
      2 C2         -6.3340   10.4416   10.3504 C.3         1 MOL       0.1402
      3 O3         -6.8969    9.7481    9.2365 O.3         1 MOL      -0.3834
      4 C4         -5.0711    9.7482   10.8786 C.3         1 MOL       0.1189
      5 O5         -5.2377    8.3288   10.9060 O.3         1 MOL      -0.3846
      6 C6         -4.9920   10.3120   12.3129 C.3         1 MOL       0.1082
      7 C7        -10.7250   15.4480   12.4947 C.3         1 MOL      -0.0106
      8 N8         -9.8416   12.9116   10.9909 N.2         1 MOL      -0.2933
      9 C9         -9.1320   11.8088   10.6968 C.2         1 MOL       0.1151
     10 N10        -8.1913   11.5613   11.6373 N.pl3       1 MOL      -0.1882
     11 C11        -8.3577   12.5066   12.5867 C.ar        1 MOL       0.1683
     12 C12        -9.3628   13.3672   12.1546 C.ar        1 MOL       0.0876
     13 O13        -6.3591   10.4669   12.7411 O.3         1 MOL      -0.3296
     14 C14        -4.1866   11.5318   12.4081 C.2         1 MOL      -0.0658
     15 C15        -4.6699   12.7717   12.6000 C.2         1 MOL      -0.0744
     16 C16        -3.9013   13.9842   12.8171 C.3         1 MOL       0.0471
     17 N17        -2.5678   13.8201   13.3055 N.am        1 MOL      -0.2802
     18 C18        -2.1601   12.9873   14.2552 C.2         1 MOL       0.1986
     19 O19        -2.9723   12.2524   14.8075 O.2         1 MOL      -0.3908
     20 C20        -0.7978   12.8480   14.5285 C.ar        1 MOL       0.0720
     21 C21        -0.3376   11.6806   15.1894 C.ar        1 MOL      -0.0533
     22 C22         1.0370   11.4480   15.4113 C.ar        1 MOL      -0.0339
     23 C23         1.9719   12.4162   14.9913 C.ar        1 MOL      -0.0299
     24 C24         1.4655   10.2616   16.0527 C.ar        1 MOL      -0.0299
     25 C25         1.2478   10.0842   17.4385 C.ar        1 MOL      -0.0581
     26 C26         1.7030    8.9229   18.0887 C.ar        1 MOL      -0.0288
     27 C27         2.1156    9.2407   15.3216 C.ar        1 MOL      -0.0581
     28 C28         2.5568    8.0736   15.9722 C.ar        1 MOL      -0.0288
     29 C29         2.3625    7.9177   17.3573 C.ar        1 MOL       0.1316
     30 F30         2.7947    6.8456   17.9620 F           1 MOL      -0.1840
     31 C31         0.1670   13.8146   14.1326 C.ar        1 MOL       0.1393
     32 O32        -0.1909   14.9866   13.5465 O.3         1 MOL      -0.3302
     33 C33         1.5406   13.6041   14.3720 C.ar        1 MOL       0.1232
     34 O34         2.4410   14.5569   14.0149 O.3         1 MOL      -0.3356
     35 C35        -9.7021   14.4870   12.9375 C.ar        1 MOL       0.0444
     36 N38        -9.0357   14.6657   14.1143 N.ar        1 MOL      -0.2825
     37 C39        -8.0773   13.7990   14.5440 C.ar        1 MOL       0.0619
     38 N40        -7.7492   12.7206   13.7834 N.ar        1 MOL      -0.2608
     39 H1         -7.8118    9.5385   11.6483 H           1 MOL       0.0998
     40 H2         -6.0847   11.4613   10.0368 H           1 MOL       0.0678
     41 H3         -7.3738   10.4306    8.7193 H           1 MOL       0.2101
     42 H4         -4.1946    9.9838   10.2689 H           1 MOL       0.0667
     43 H5         -4.3670    7.9696   11.1792 H           1 MOL       0.2102
     44 H6         -4.5287    9.5776   12.9788 H           1 MOL       0.0749
     45 H7        -10.8185   16.2731   13.2028 H           1 MOL       0.0446
     46 H8        -11.6898   14.9465   12.4120 H           1 MOL       0.0446
     47 H9        -10.4490   15.8540   11.5197 H           1 MOL       0.0446
     48 H10        -9.2970   11.2496    9.8599 H           1 MOL       0.1373
     49 H11        -3.2041   11.4258   12.3266 H           1 MOL       0.0477
     50 H12        -5.6418   12.8986   12.5451 H           1 MOL       0.0470
     51 H13        -4.4448   14.6228   13.5192 H           1 MOL       0.0643
     52 H14        -3.8536   14.5145   11.8643 H           1 MOL       0.0643
     53 H15        -1.8912   14.3663   12.8848 H           1 MOL       0.1864
     54 H16        -1.0081   10.9607   15.4766 H           1 MOL       0.0555
     55 H17         2.9723   12.2688   15.1523 H           1 MOL       0.0543
     56 H18         0.7763   10.8086   17.9872 H           1 MOL       0.0601
     57 H19         1.5564    8.8151   19.0950 H           1 MOL       0.0602
     58 H20         2.2643    9.3355   14.3127 H           1 MOL       0.0601
     59 H21         3.0274    7.3418   15.4364 H           1 MOL       0.0602
     60 H22        -0.5215   15.5447   14.2836 H           1 MOL       0.2479
     61 H23         3.1973   14.4585   14.6290 H           1 MOL       0.2443
     62 H24        -7.6014   13.9570   15.4347 H           1 MOL       0.1019
@<TRIPOS>BOND
     1     1     2   1
     2    10     1   1
     3     1    13   1
     4     2     3   1
     5     2     4   1
     6     4     5   1
     7     6     4   1
     8    13     6   1
     9     6    14   1
    10    35     7   1
    11     8     9   2
    12    12     8   1
    13    10     9   1
    14    11    10   1
    15    12    11  ar
    16    11    38  ar
    17    12    35  ar
    18    14    15   2
    19    15    16   1
    20    16    17   1
    21    17    18  am
    22    18    19   2
    23    18    20   1
    24    20    21  ar
    25    20    31  ar
    26    21    22  ar
    27    22    23  ar
    28    22    24   1
    29    23    33  ar
    30    24    25  ar
    31    24    27  ar
    32    25    26  ar
    33    26    29  ar
    34    27    28  ar
    35    28    29  ar
    36    29    30   1
    37    31    32   1
    38    31    33  ar
    39    33    34   1
    40    35    36  ar
    41    36    37  ar
    42    37    38  ar
    43     1    39   1
    44     2    40   1
    45     3    41   1
    46     4    42   1
    47     5    43   1
    48     6    44   1
    49     7    45   1
    50     7    46   1
    51     7    47   1
    52     9    48   1
    53    14    49   1
    54    15    50   1
    55    16    51   1
    56    16    52   1
    57    17    53   1
    58    21    54   1
    59    23    55   1
    60    25    56   1
    61    26    57   1
    62    27    58   1
    63    28    59   1
    64    32    60   1
    65    34    61   1
    66    37    62   1
@<TRIPOS>SUBSTRUCTURE
     1  MOL      1

