@<TRIPOS>MOLECULE
3nw9_ligand_035
    62    66
SMALL
GAST_HUCK
****
This file was generated by PARSER (from files_GN.cpp)

@<TRIPOS>ATOM
      1 C1         -7.7856   12.2803   11.4835 C.3         1 MOL       0.2034
      2 C2         -8.6353   11.6213   12.5949 C.3         1 MOL       0.1402
      3 O3        -10.0338   11.8457   12.4047 O.3         1 MOL      -0.3834
      4 C4         -8.0769   12.2115   13.9093 C.3         1 MOL       0.1189
      5 O5         -9.0492   12.9444   14.6571 O.3         1 MOL      -0.3846
      6 C6         -6.9140   13.1235   13.4443 C.3         1 MOL       0.1082
      7 C7         -8.0492    8.5340    6.6531 C.3         1 MOL      -0.0106
      8 N8         -6.5712   10.1633    8.8198 N.2         1 MOL      -0.2933
      9 C9         -6.3924   10.9767    9.8757 C.2         1 MOL       0.1151
     10 N10        -7.5800   11.4070   10.3639 N.pl3       1 MOL      -0.1882
     11 C11        -8.5333   10.8460    9.5995 C.ar        1 MOL       0.1683
     12 C12        -7.8931   10.0699    8.6343 C.ar        1 MOL       0.0876
     13 O13        -6.5629   12.6704   12.1297 O.3         1 MOL      -0.3296
     14 C14        -5.7547   13.1336   14.3204 C.2         1 MOL      -0.0658
     15 C15        -4.9030   12.0985   14.4393 C.2         1 MOL      -0.0744
     16 C16        -3.7691   12.1122   15.3454 C.3         1 MOL       0.0471
     17 N17        -2.9216   13.2465   15.1364 N.am        1 MOL      -0.2802
     18 C18        -2.0894   13.4300   14.1149 C.2         1 MOL       0.1986
     19 O19        -1.8974   12.5453   13.2841 O.2         1 MOL      -0.3908
     20 C20        -1.3533   14.5907   14.0338 C.ar        1 MOL       0.0720
     21 C21        -2.0089   15.8487   13.9914 C.ar        1 MOL      -0.0533
     22 C22        -1.2841   17.0676   13.9048 C.ar        1 MOL      -0.0339
     23 C23         0.1337   16.9812   13.9040 C.ar        1 MOL      -0.0299
     24 C24        -1.9364   18.3464   13.7991 C.ar        1 MOL      -0.0299
     25 C25        -1.2763   19.5445   14.1977 C.ar        1 MOL      -0.0581
     26 C26        -1.8781   20.8051   14.0398 C.ar        1 MOL      -0.0288
     27 C27        -3.2477   18.4790   13.2621 C.ar        1 MOL      -0.0581
     28 C28        -3.8556   19.7383   13.1105 C.ar        1 MOL      -0.0288
     29 C29        -3.1705   20.9046   13.4944 C.ar        1 MOL       0.1316
     30 F30        -3.7356   22.0772   13.3550 F           1 MOL      -0.1840
     31 C31         0.0609   14.5508   14.0250 C.ar        1 MOL       0.1393
     32 O32         0.7445   13.3746   14.0704 O.3         1 MOL      -0.3302
     33 C33         0.7921   15.7465   14.0010 C.ar        1 MOL       0.1232
     34 O34         2.1461   15.7211   14.0478 O.3         1 MOL      -0.3356
     35 C35        -8.6691    9.3603    7.6986 C.ar        1 MOL       0.0444
     36 N38       -10.0258    9.4675    7.7895 N.ar        1 MOL      -0.2825
     37 C39       -10.6360   10.2285    8.7351 C.ar        1 MOL       0.0619
     38 N40        -9.8890   10.9187    9.6400 N.ar        1 MOL      -0.2608
     39 H1         -8.2680   13.1953   11.1234 H           1 MOL       0.0998
     40 H2         -8.4725   10.5366   12.5964 H           1 MOL       0.0678
     41 H3        -10.1541   12.8184   12.4471 H           1 MOL       0.2101
     42 H4         -7.7115   11.3964   14.5454 H           1 MOL       0.0667
     43 H5         -9.7277   12.2787   14.9133 H           1 MOL       0.2102
     44 H6         -7.2815   14.1508   13.3484 H           1 MOL       0.0749
     45 H7         -8.8069    8.0423    6.0403 H           1 MOL       0.0446
     46 H8         -7.4228    7.7653    7.1144 H           1 MOL       0.0446
     47 H9         -7.4290    9.1601    6.0058 H           1 MOL       0.0446
     48 H10        -5.4758   11.2211   10.2519 H           1 MOL       0.1373
     49 H11        -5.5686   13.9616   14.8364 H           1 MOL       0.0477
     50 H12        -5.0482   11.2840   13.8840 H           1 MOL       0.0470
     51 H13        -3.1859   11.1923   15.2449 H           1 MOL       0.0643
     52 H14        -4.1393   12.1511   16.3685 H           1 MOL       0.0643
     53 H15        -2.9293   13.9379   15.8239 H           1 MOL       0.1864
     54 H16        -3.0309   15.8647   14.0053 H           1 MOL       0.0555
     55 H17         0.7125   17.8154   13.8019 H           1 MOL       0.0543
     56 H18        -0.3483   19.5165   14.6219 H           1 MOL       0.0601
     57 H19        -1.3736   21.6440   14.3289 H           1 MOL       0.0602
     58 H20        -3.7724   17.6595   12.9478 H           1 MOL       0.0601
     59 H21        -4.7950   19.8035   12.7080 H           1 MOL       0.0602
     60 H22         0.7401   13.0543   13.1441 H           1 MOL       0.2479
     61 H23         2.3641   16.0762   14.9401 H           1 MOL       0.2443
     62 H24       -11.6548   10.2847    8.7668 H           1 MOL       0.1019
@<TRIPOS>BOND
     1     1     2   1
     2    10     1   1
     3     1    13   1
     4     2     3   1
     5     2     4   1
     6     4     5   1
     7     6     4   1
     8    13     6   1
     9     6    14   1
    10    35     7   1
    11     8     9   2
    12    12     8   1
    13    10     9   1
    14    11    10   1
    15    12    11  ar
    16    11    38  ar
    17    12    35  ar
    18    14    15   2
    19    15    16   1
    20    16    17   1
    21    17    18  am
    22    18    19   2
    23    18    20   1
    24    20    21  ar
    25    20    31  ar
    26    21    22  ar
    27    22    23  ar
    28    22    24   1
    29    23    33  ar
    30    24    25  ar
    31    24    27  ar
    32    25    26  ar
    33    26    29  ar
    34    27    28  ar
    35    28    29  ar
    36    29    30   1
    37    31    32   1
    38    31    33  ar
    39    33    34   1
    40    35    36  ar
    41    36    37  ar
    42    37    38  ar
    43     1    39   1
    44     2    40   1
    45     3    41   1
    46     4    42   1
    47     5    43   1
    48     6    44   1
    49     7    45   1
    50     7    46   1
    51     7    47   1
    52     9    48   1
    53    14    49   1
    54    15    50   1
    55    16    51   1
    56    16    52   1
    57    17    53   1
    58    21    54   1
    59    23    55   1
    60    25    56   1
    61    26    57   1
    62    27    58   1
    63    28    59   1
    64    32    60   1
    65    34    61   1
    66    37    62   1
@<TRIPOS>SUBSTRUCTURE
     1  MOL      1

