@<TRIPOS>MOLECULE
3nw9_ligand_050
    62    66
SMALL
GAST_HUCK
****
This file was generated by PARSER (from files_GN.cpp)

@<TRIPOS>ATOM
      1 C1         -8.2951   12.6520   12.9775 C.3         1 MOL       0.2034
      2 C2         -7.2876   12.8078   11.8104 C.3         1 MOL       0.1402
      3 O3         -7.7790   12.2762   10.5769 O.3         1 MOL      -0.3834
      4 C4         -5.9999   12.1268   12.3317 C.3         1 MOL       0.1189
      5 O5         -5.6425   10.9489   11.6143 O.3         1 MOL      -0.3846
      6 C6         -6.3266   11.8023   13.8122 C.3         1 MOL       0.1082
      7 C7        -12.6841   16.4421   14.9206 C.3         1 MOL      -0.0106
      8 N8        -10.6576   15.3998   12.8049 N.2         1 MOL      -0.2933
      9 C9         -9.6919   14.6308   12.2709 C.2         1 MOL       0.1151
     10 N10        -9.2952   13.6703   13.1358 N.pl3       1 MOL      -0.1882
     11 C11       -10.0393   13.8356   14.2450 C.ar        1 MOL       0.1683
     12 C12       -10.8870   14.9199   14.0361 C.ar        1 MOL       0.0876
     13 O13        -7.4491   12.6292   14.1335 O.3         1 MOL      -0.3296
     14 C14        -5.2435   12.0559   14.7538 C.2         1 MOL      -0.0658
     15 C15        -4.1119   11.3345   14.7818 C.2         1 MOL      -0.0744
     16 C16        -2.9643   11.6800   15.6088 C.3         1 MOL       0.0471
     17 N17        -2.3928   12.9731   15.3676 N.am        1 MOL      -0.2802
     18 C18        -2.0592   13.4825   14.1912 C.2         1 MOL       0.1986
     19 O19        -2.2927   12.9043   13.1347 O.2         1 MOL      -0.3908
     20 C20        -1.3120   14.6378   14.1503 C.ar        1 MOL       0.0720
     21 C21        -1.9434   15.9023   14.0788 C.ar        1 MOL      -0.0533
     22 C22        -1.1992   17.1102   13.9768 C.ar        1 MOL      -0.0339
     23 C23         0.2172   16.9921   13.9686 C.ar        1 MOL      -0.0299
     24 C24        -1.8467   18.3972   13.8683 C.ar        1 MOL      -0.0299
     25 C25        -1.2020   19.5947   14.2831 C.ar        1 MOL      -0.0581
     26 C26        -1.8102   20.8562   14.1317 C.ar        1 MOL      -0.0288
     27 C27        -3.1515   18.5346   13.3214 C.ar        1 MOL      -0.0581
     28 C28        -3.7742   19.7908   13.1900 C.ar        1 MOL      -0.0288
     29 C29        -3.1018   20.9546   13.5928 C.ar        1 MOL       0.1316
     30 F30        -3.6704   22.1236   13.4581 F           1 MOL      -0.1840
     31 C31         0.0977   14.5639   14.1654 C.ar        1 MOL       0.1393
     32 O32         0.7354   13.3644   14.2310 O.3         1 MOL      -0.3302
     33 C33         0.8572   15.7445   14.0961 C.ar        1 MOL       0.1232
     34 O34         2.2077   15.6757   14.0966 O.3         1 MOL      -0.3356
     35 C35       -11.7655   15.3006   15.0686 C.ar        1 MOL       0.0444
     36 N38       -11.7309   14.5870   16.2298 N.ar        1 MOL      -0.2825
     37 C39       -10.8930   13.5294   16.4109 C.ar        1 MOL       0.0619
     38 N40       -10.0471   13.1537   15.4191 N.ar        1 MOL      -0.2608
     39 H1         -8.8093   11.6872   12.9009 H           1 MOL       0.0998
     40 H2         -7.0741   13.8683   11.6545 H           1 MOL       0.0678
     41 H3         -7.9938   11.3366   10.7614 H           1 MOL       0.2101
     42 H4         -5.1699   12.8381   12.2638 H           1 MOL       0.0667
     43 H5         -5.4661   11.2426   10.6965 H           1 MOL       0.2102
     44 H6         -6.6470   10.7571   13.9155 H           1 MOL       0.0749
     45 H7        -13.2764   16.5812   15.8251 H           1 MOL       0.0446
     46 H8        -13.3599   16.2647   14.0838 H           1 MOL       0.0446
     47 H9        -12.1135   17.3526   14.7343 H           1 MOL       0.0446
     48 H10        -9.3261   14.7712   11.3256 H           1 MOL       0.1373
     49 H11        -5.3361   12.8250   15.3817 H           1 MOL       0.0477
     50 H12        -4.0432   10.5334   14.1949 H           1 MOL       0.0470
     51 H13        -2.1766   10.9368   15.4611 H           1 MOL       0.0643
     52 H14        -3.2630   11.6397   16.6591 H           1 MOL       0.0643
     53 H15        -2.1457   13.4994   16.1484 H           1 MOL       0.1864
     54 H16        -2.9647   15.9307   14.1089 H           1 MOL       0.0555
     55 H17         0.8103   17.8126   13.8361 H           1 MOL       0.0543
     56 H18        -0.2766   19.5702   14.7174 H           1 MOL       0.0601
     57 H19        -1.3067   21.7005   14.4175 H           1 MOL       0.0602
     58 H20        -3.6692   17.7200   12.9856 H           1 MOL       0.0601
     59 H21        -4.7141   19.8529   12.7881 H           1 MOL       0.0602
     60 H22         1.0607   13.2125   13.3185 H           1 MOL       0.2479
     61 H23         2.4811   16.0258   14.9711 H           1 MOL       0.2443
     62 H24       -10.8937   13.0230   17.2974 H           1 MOL       0.1019
@<TRIPOS>BOND
     1     1     2   1
     2    10     1   1
     3     1    13   1
     4     2     3   1
     5     2     4   1
     6     4     5   1
     7     6     4   1
     8    13     6   1
     9     6    14   1
    10    35     7   1
    11     8     9   2
    12    12     8   1
    13    10     9   1
    14    11    10   1
    15    12    11  ar
    16    11    38  ar
    17    12    35  ar
    18    14    15   2
    19    15    16   1
    20    16    17   1
    21    17    18  am
    22    18    19   2
    23    18    20   1
    24    20    21  ar
    25    20    31  ar
    26    21    22  ar
    27    22    23  ar
    28    22    24   1
    29    23    33  ar
    30    24    25  ar
    31    24    27  ar
    32    25    26  ar
    33    26    29  ar
    34    27    28  ar
    35    28    29  ar
    36    29    30   1
    37    31    32   1
    38    31    33  ar
    39    33    34   1
    40    35    36  ar
    41    36    37  ar
    42    37    38  ar
    43     1    39   1
    44     2    40   1
    45     3    41   1
    46     4    42   1
    47     5    43   1
    48     6    44   1
    49     7    45   1
    50     7    46   1
    51     7    47   1
    52     9    48   1
    53    14    49   1
    54    15    50   1
    55    16    51   1
    56    16    52   1
    57    17    53   1
    58    21    54   1
    59    23    55   1
    60    25    56   1
    61    26    57   1
    62    27    58   1
    63    28    59   1
    64    32    60   1
    65    34    61   1
    66    37    62   1
@<TRIPOS>SUBSTRUCTURE
     1  MOL      1

