@<TRIPOS>MOLECULE
3nw9_ligand_055
    62    66
SMALL
GAST_HUCK
****
This file was generated by PARSER (from files_GN.cpp)

@<TRIPOS>ATOM
      1 C1         -3.7954   12.5072   14.9160 C.3         1 MOL       0.2034
      2 C2         -3.7193   14.0037   14.5429 C.3         1 MOL       0.1402
      3 O3         -4.9943   14.5556   14.2190 O.3         1 MOL      -0.3834
      4 C4         -2.7458   13.9893   13.3555 C.3         1 MOL       0.1189
      5 O5         -3.4004   13.7252   12.1139 O.3         1 MOL      -0.3846
      6 C6         -1.7944   12.8207   13.7325 C.3         1 MOL       0.1082
      7 C7         -4.1507   11.8094   20.9972 C.3         1 MOL      -0.0106
      8 N8         -5.2852   11.7307   18.1120 N.2         1 MOL      -0.2933
      9 C9         -5.3146   11.8477   16.7718 C.2         1 MOL       0.1151
     10 N10        -4.1259   12.2790   16.2946 N.pl3       1 MOL      -0.1882
     11 C11        -3.3239   12.4374   17.3631 C.ar        1 MOL       0.1683
     12 C12        -4.0538   12.0928   18.4979 C.ar        1 MOL       0.0876
     13 O13        -2.5240   11.9227   14.5822 O.3         1 MOL      -0.3296
     14 C14        -0.6117   13.2889   14.4519 C.2         1 MOL      -0.0658
     15 C15         0.6503   12.9671   14.1348 C.2         1 MOL      -0.0744
     16 C16         1.7951   13.6670   14.7016 C.3         1 MOL       0.0471
     17 N17         1.7798   15.1077   14.6880 N.am        1 MOL      -0.2802
     18 C18         0.9796   15.9253   14.0122 C.2         1 MOL       0.1986
     19 O19         0.1694   15.5005   13.2035 O.2         1 MOL      -0.3908
     20 C20         1.0138   17.2932   14.2039 C.ar        1 MOL       0.0720
     21 C21        -0.2028   18.0095   14.2986 C.ar        1 MOL      -0.0533
     22 C22        -0.2231   19.4162   14.4079 C.ar        1 MOL      -0.0339
     23 C23         1.0030   20.1177   14.4105 C.ar        1 MOL      -0.0299
     24 C24        -1.4512   20.1157   14.4782 C.ar        1 MOL      -0.0299
     25 C25        -2.1919   20.3806   13.3040 C.ar        1 MOL      -0.0581
     26 C26        -3.4398   21.0302   13.3736 C.ar        1 MOL      -0.0288
     27 C27        -1.9783   20.5229   15.7253 C.ar        1 MOL      -0.0581
     28 C28        -3.2280   21.1707   15.7974 C.ar        1 MOL      -0.0288
     29 C29        -3.9619   21.4191   14.6220 C.ar        1 MOL       0.1316
     30 F30        -5.1297   22.0029   14.6887 F           1 MOL      -0.1840
     31 C31         2.2333   18.0107   14.2365 C.ar        1 MOL       0.1393
     32 O32         3.4252   17.3714   14.0562 O.3         1 MOL      -0.3302
     33 C33         2.2237   19.4208   14.3307 C.ar        1 MOL       0.1232
     34 O34         3.3795   20.1207   14.2471 O.3         1 MOL      -0.3356
     35 C35        -3.4348   12.1637   19.7601 C.ar        1 MOL       0.0444
     36 N38        -2.1327   12.5718   19.8064 N.ar        1 MOL      -0.2825
     37 C39        -1.4323   12.9020   18.6860 C.ar        1 MOL       0.0619
     38 N40        -2.0288   12.8316   17.4671 N.ar        1 MOL      -0.2608
     39 H1         -4.5403   12.0282   14.2692 H           1 MOL       0.0998
     40 H2         -3.2884   14.5848   15.3625 H           1 MOL       0.0678
     41 H3         -5.4915   14.5586   15.0644 H           1 MOL       0.2101
     42 H4         -2.2218   14.9459   13.2613 H           1 MOL       0.0667
     43 H5         -3.4078   14.5837   11.6313 H           1 MOL       0.2102
     44 H6         -1.5057   12.2758   12.8307 H           1 MOL       0.0749
     45 H7         -3.5031   11.9216   21.8700 H           1 MOL       0.0446
     46 H8         -4.4843   10.7707   20.9451 H           1 MOL       0.0446
     47 H9         -5.0184   12.4579   21.1222 H           1 MOL       0.0446
     48 H10        -6.1361   11.6377   16.2027 H           1 MOL       0.1373
     49 H11        -0.7550   13.9775   15.1593 H           1 MOL       0.0477
     50 H12         0.8198   12.2879   13.4222 H           1 MOL       0.0470
     51 H13         2.7080   13.3433   14.1994 H           1 MOL       0.0643
     52 H14         1.8852   13.3602   15.7521 H           1 MOL       0.0643
     53 H15         2.4226   15.5486   15.2678 H           1 MOL       0.1864
     54 H16        -1.0940   17.5006   14.2958 H           1 MOL       0.0555
     55 H17         1.0131   21.1412   14.4483 H           1 MOL       0.0543
     56 H18        -1.8299   20.1055   12.3869 H           1 MOL       0.0601
     57 H19        -3.9687   21.2111   12.5163 H           1 MOL       0.0602
     58 H20        -1.4680   20.3356   16.5912 H           1 MOL       0.0601
     59 H21        -3.6055   21.4500   16.7062 H           1 MOL       0.0602
     60 H22         3.7778   17.7691   13.2406 H           1 MOL       0.2479
     61 H23         3.7096   19.8992   13.3506 H           1 MOL       0.2443
     62 H24        -0.4591   13.1998   18.7619 H           1 MOL       0.1019
@<TRIPOS>BOND
     1     1     2   1
     2    10     1   1
     3     1    13   1
     4     2     3   1
     5     2     4   1
     6     4     5   1
     7     6     4   1
     8    13     6   1
     9     6    14   1
    10    35     7   1
    11     8     9   2
    12    12     8   1
    13    10     9   1
    14    11    10   1
    15    12    11  ar
    16    11    38  ar
    17    12    35  ar
    18    14    15   2
    19    15    16   1
    20    16    17   1
    21    17    18  am
    22    18    19   2
    23    18    20   1
    24    20    21  ar
    25    20    31  ar
    26    21    22  ar
    27    22    23  ar
    28    22    24   1
    29    23    33  ar
    30    24    25  ar
    31    24    27  ar
    32    25    26  ar
    33    26    29  ar
    34    27    28  ar
    35    28    29  ar
    36    29    30   1
    37    31    32   1
    38    31    33  ar
    39    33    34   1
    40    35    36  ar
    41    36    37  ar
    42    37    38  ar
    43     1    39   1
    44     2    40   1
    45     3    41   1
    46     4    42   1
    47     5    43   1
    48     6    44   1
    49     7    45   1
    50     7    46   1
    51     7    47   1
    52     9    48   1
    53    14    49   1
    54    15    50   1
    55    16    51   1
    56    16    52   1
    57    17    53   1
    58    21    54   1
    59    23    55   1
    60    25    56   1
    61    26    57   1
    62    27    58   1
    63    28    59   1
    64    32    60   1
    65    34    61   1
    66    37    62   1
@<TRIPOS>SUBSTRUCTURE
     1  MOL      1

