@<TRIPOS>MOLECULE
3nw9_ligand_044
    62    66
SMALL
GAST_HUCK
****
This file was generated by PARSER (from files_GN.cpp)

@<TRIPOS>ATOM
      1 C1         -8.3607   12.0664   14.3106 C.3         1 MOL       0.2034
      2 C2         -7.7808   13.4941   14.1209 C.3         1 MOL       0.1402
      3 O3         -8.6394   14.5253   14.6116 O.3         1 MOL      -0.3834
      4 C4         -7.5161   13.5752   12.6095 C.3         1 MOL       0.1189
      5 O5         -8.6460   14.1033   11.9071 O.3         1 MOL      -0.3846
      6 C6         -7.2550   12.0993   12.2195 C.3         1 MOL       0.1082
      7 C7         -6.8395    8.3613   18.9624 C.3         1 MOL      -0.0106
      8 N8         -7.5849   11.0896   17.7107 N.2         1 MOL      -0.2933
      9 C9         -7.9258   11.9854   16.7683 C.2         1 MOL       0.1151
     10 N10        -7.9880   11.4162   15.5422 N.pl3       1 MOL      -0.1882
     11 C11        -7.7071   10.1090   15.7243 C.ar        1 MOL       0.1683
     12 C12        -7.4477    9.9151   17.0795 C.ar        1 MOL       0.0876
     13 O13        -7.9708   11.2880   13.1602 O.3         1 MOL      -0.3296
     14 C14        -5.8486   11.7136   12.1567 C.2         1 MOL      -0.0658
     15 C15        -5.0053   11.7285   13.2060 C.2         1 MOL      -0.0744
     16 C16        -3.5857   11.4756   13.1022 C.3         1 MOL       0.0471
     17 N17        -2.8848   12.7130   13.2740 N.am        1 MOL      -0.2802
     18 C18        -1.8469   12.9519   14.0743 C.2         1 MOL       0.1986
     19 O19        -1.3820   12.0609   14.7753 O.2         1 MOL      -0.3908
     20 C20        -1.2253   14.2075   14.0369 C.ar        1 MOL       0.0720
     21 C21        -2.0024   15.3846   13.8874 C.ar        1 MOL      -0.0533
     22 C22        -1.4406   16.6848   13.7451 C.ar        1 MOL      -0.0339
     23 C23        -0.0185   16.7503   13.7789 C.ar        1 MOL      -0.0299
     24 C24        -2.2640   17.8658   13.5788 C.ar        1 MOL      -0.0299
     25 C25        -3.6388   17.7934   13.1994 C.ar        1 MOL      -0.0581
     26 C26        -4.4390   18.9357   13.0448 C.ar        1 MOL      -0.0288
     27 C27        -1.7513   19.1824   13.7907 C.ar        1 MOL      -0.0581
     28 C28        -2.5318   20.3307   13.5989 C.ar        1 MOL      -0.0288
     29 C29        -3.8883   20.2180   13.2329 C.ar        1 MOL       0.1316
     30 F30        -4.6185   21.2851   13.0701 F           1 MOL      -0.1840
     31 C31         0.1869   14.3419   14.1262 C.ar        1 MOL       0.1393
     32 O32         1.0028   13.2689   14.2801 O.3         1 MOL      -0.3302
     33 C33         0.7758   15.6147   14.0011 C.ar        1 MOL       0.1232
     34 O34         2.1272   15.7472   14.0429 O.3         1 MOL      -0.3356
     35 C35        -7.1313    8.6245   17.5406 C.ar        1 MOL       0.0444
     36 N38        -7.1071    7.6126   16.6284 N.ar        1 MOL      -0.2825
     37 C39        -7.3726    7.8166   15.3063 C.ar        1 MOL       0.0619
     38 N40        -7.6704    9.0649   14.8596 N.ar        1 MOL      -0.2608
     39 H1         -9.4529   12.1229   14.2886 H           1 MOL       0.0998
     40 H2         -6.8355   13.5981   14.6560 H           1 MOL       0.0678
     41 H3         -9.4850   14.4179   14.1255 H           1 MOL       0.2101
     42 H4         -6.6570   14.2181   12.3974 H           1 MOL       0.0667
     43 H5         -9.3700   13.4559   12.0388 H           1 MOL       0.2102
     44 H6         -7.6919   11.9111   11.2315 H           1 MOL       0.0749
     45 H7         -6.6313    7.3030   19.1291 H           1 MOL       0.0446
     46 H8         -7.6956    8.6486   19.5741 H           1 MOL       0.0446
     47 H9         -5.9684    8.9409   19.2704 H           1 MOL       0.0446
     48 H10        -8.1055   12.9720   16.9713 H           1 MOL       0.1373
     49 H11        -5.4889   11.4460   11.2679 H           1 MOL       0.0477
     50 H12        -5.3489   11.9583   14.1075 H           1 MOL       0.0470
     51 H13        -3.3144   11.0746   12.1208 H           1 MOL       0.0643
     52 H14        -3.3229   10.7217   13.8538 H           1 MOL       0.0643
     53 H15        -3.1590   13.4378   12.6928 H           1 MOL       0.1864
     54 H16        -3.0206   15.2828   13.9162 H           1 MOL       0.0555
     55 H17         0.4688   17.6371   13.6201 H           1 MOL       0.0543
     56 H18        -4.0896   16.8932   13.0045 H           1 MOL       0.0601
     57 H19        -5.4267   18.8416   12.7824 H           1 MOL       0.0602
     58 H20        -0.7871   19.3281   14.1051 H           1 MOL       0.0601
     59 H21        -2.1202   21.2612   13.7385 H           1 MOL       0.0602
     60 H22         1.2511   13.0272   13.3618 H           1 MOL       0.2479
     61 H23         2.3106   16.1989   14.8976 H           1 MOL       0.2443
     62 H24        -7.3506    7.0334   14.6554 H           1 MOL       0.1019
@<TRIPOS>BOND
     1     1     2   1
     2    10     1   1
     3     1    13   1
     4     2     3   1
     5     2     4   1
     6     4     5   1
     7     6     4   1
     8    13     6   1
     9     6    14   1
    10    35     7   1
    11     8     9   2
    12    12     8   1
    13    10     9   1
    14    11    10   1
    15    12    11  ar
    16    11    38  ar
    17    12    35  ar
    18    14    15   2
    19    15    16   1
    20    16    17   1
    21    17    18  am
    22    18    19   2
    23    18    20   1
    24    20    21  ar
    25    20    31  ar
    26    21    22  ar
    27    22    23  ar
    28    22    24   1
    29    23    33  ar
    30    24    25  ar
    31    24    27  ar
    32    25    26  ar
    33    26    29  ar
    34    27    28  ar
    35    28    29  ar
    36    29    30   1
    37    31    32   1
    38    31    33  ar
    39    33    34   1
    40    35    36  ar
    41    36    37  ar
    42    37    38  ar
    43     1    39   1
    44     2    40   1
    45     3    41   1
    46     4    42   1
    47     5    43   1
    48     6    44   1
    49     7    45   1
    50     7    46   1
    51     7    47   1
    52     9    48   1
    53    14    49   1
    54    15    50   1
    55    16    51   1
    56    16    52   1
    57    17    53   1
    58    21    54   1
    59    23    55   1
    60    25    56   1
    61    26    57   1
    62    27    58   1
    63    28    59   1
    64    32    60   1
    65    34    61   1
    66    37    62   1
@<TRIPOS>SUBSTRUCTURE
     1  MOL      1

