@<TRIPOS>MOLECULE
3nw9_ligand_061
    62    66
SMALL
GAST_HUCK
****
This file was generated by PARSER (from files_GN.cpp)

@<TRIPOS>ATOM
      1 C1          0.1655    7.3479   16.3936 C.3         1 MOL       0.2034
      2 C2          1.2913    8.2762   15.8915 C.3         1 MOL       0.1402
      3 O3          2.5664    7.6395   15.8796 O.3         1 MOL      -0.3834
      4 C4          1.1869    9.4588   16.8629 C.3         1 MOL       0.1189
      5 O5          1.9240    9.2206   18.0644 O.3         1 MOL      -0.3846
      6 C6         -0.3343    9.5099   17.1622 C.3         1 MOL       0.1082
      7 C7         -1.2283    2.9392   12.3772 C.3         1 MOL      -0.0106
      8 N8         -1.5920    5.7153   13.6931 N.2         1 MOL      -0.2933
      9 C9         -1.3749    6.7439   14.5313 C.2         1 MOL       0.1151
     10 N10        -0.3506    6.4804   15.3749 N.pl3       1 MOL      -0.1882
     11 C11         0.0831    5.2435   15.0706 C.ar        1 MOL       0.1683
     12 C12        -0.6925    4.7728   14.0129 C.ar        1 MOL       0.0876
     13 O13        -0.8647    8.1912   16.9303 O.3         1 MOL      -0.3296
     14 C14        -1.0875   10.4300   16.3125 C.2         1 MOL      -0.0658
     15 C15        -2.3862   10.6977   16.4963 C.2         1 MOL      -0.0744
     16 C16        -3.1565   11.5134   15.5723 C.3         1 MOL       0.0471
     17 N17        -2.5194   12.7757   15.3376 N.am        1 MOL      -0.2802
     18 C18        -1.9021   13.1438   14.2243 C.2         1 MOL       0.1986
     19 O19        -1.7856   12.4020   13.2574 O.2         1 MOL      -0.3908
     20 C20        -1.2792   14.3735   14.1550 C.ar        1 MOL       0.0720
     21 C21        -2.0542   15.5449   14.0307 C.ar        1 MOL      -0.0533
     22 C22        -1.4674   16.8277   13.8333 C.ar        1 MOL      -0.0339
     23 C23        -0.0431   16.8823   13.8260 C.ar        1 MOL      -0.0299
     24 C24        -2.2710   18.0161   13.6447 C.ar        1 MOL      -0.0299
     25 C25        -3.6340   17.9434   13.2349 C.ar        1 MOL      -0.0581
     26 C26        -4.4247   19.0963   13.0718 C.ar        1 MOL      -0.0288
     27 C27        -1.7445   19.3241   13.8690 C.ar        1 MOL      -0.0581
     28 C28        -2.5241   20.4804   13.6794 C.ar        1 MOL      -0.0288
     29 C29        -3.8695   20.3670   13.2866 C.ar        1 MOL       0.1316
     30 F30        -4.5993   21.4397   13.1277 F           1 MOL      -0.1840
     31 C31         0.1291   14.4708   14.1578 C.ar        1 MOL       0.1393
     32 O32         0.9101   13.3699   14.2941 O.3         1 MOL      -0.3302
     33 C33         0.7412   15.7310   14.0210 C.ar        1 MOL       0.1232
     34 O34         2.0883   15.8317   14.0398 O.3         1 MOL      -0.3356
     35 C35        -0.4380    3.4897   13.4939 C.ar        1 MOL       0.0444
     36 N38         0.5665    2.7645   14.0618 N.ar        1 MOL      -0.2825
     37 C39         1.3169    3.2427   15.0969 C.ar        1 MOL       0.0619
     38 N40         1.0763    4.4831   15.5976 N.ar        1 MOL      -0.2608
     39 H1          0.5551    6.7556   17.2284 H           1 MOL       0.0998
     40 H2          1.0756    8.6255   14.8760 H           1 MOL       0.0678
     41 H3          2.7224    7.3446   16.8025 H           1 MOL       0.2101
     42 H4          1.5617   10.3827   16.4107 H           1 MOL       0.0667
     43 H5          2.8640    9.3666   17.8273 H           1 MOL       0.2102
     44 H6         -0.4908    9.7760   18.2126 H           1 MOL       0.0749
     45 H7         -0.8900    1.9354   12.1156 H           1 MOL       0.0446
     46 H8         -1.1241    3.5810   11.5012 H           1 MOL       0.0446
     47 H9         -2.2809    2.8893   12.6602 H           1 MOL       0.0446
     48 H10        -1.9235    7.6065   14.5230 H           1 MOL       0.1373
     49 H11        -0.6225   10.8336   15.5283 H           1 MOL       0.0477
     50 H12        -2.8573   10.2918   17.2738 H           1 MOL       0.0470
     51 H13        -4.1420   11.7140   15.9969 H           1 MOL       0.0643
     52 H14        -3.3093   10.9364   14.6520 H           1 MOL       0.0643
     53 H15        -2.5092   13.4116   16.0762 H           1 MOL       0.1864
     54 H16        -3.0730   15.4496   14.0845 H           1 MOL       0.0555
     55 H17         0.4534   17.7615   13.6484 H           1 MOL       0.0543
     56 H18        -4.0740   17.0446   13.0195 H           1 MOL       0.0601
     57 H19        -5.4038   19.0011   12.7896 H           1 MOL       0.0602
     58 H20        -0.7830   19.4615   14.1932 H           1 MOL       0.0601
     59 H21        -2.1117   21.4021   13.8451 H           1 MOL       0.0602
     60 H22         1.0717   13.0691   13.3758 H           1 MOL       0.2479
     61 H23         2.3036   16.2220   14.9175 H           1 MOL       0.2443
     62 H24         2.0588    2.6678   15.4950 H           1 MOL       0.1019
@<TRIPOS>BOND
     1     1     2   1
     2    10     1   1
     3     1    13   1
     4     2     3   1
     5     2     4   1
     6     4     5   1
     7     6     4   1
     8    13     6   1
     9     6    14   1
    10    35     7   1
    11     8     9   2
    12    12     8   1
    13    10     9   1
    14    11    10   1
    15    12    11  ar
    16    11    38  ar
    17    12    35  ar
    18    14    15   2
    19    15    16   1
    20    16    17   1
    21    17    18  am
    22    18    19   2
    23    18    20   1
    24    20    21  ar
    25    20    31  ar
    26    21    22  ar
    27    22    23  ar
    28    22    24   1
    29    23    33  ar
    30    24    25  ar
    31    24    27  ar
    32    25    26  ar
    33    26    29  ar
    34    27    28  ar
    35    28    29  ar
    36    29    30   1
    37    31    32   1
    38    31    33  ar
    39    33    34   1
    40    35    36  ar
    41    36    37  ar
    42    37    38  ar
    43     1    39   1
    44     2    40   1
    45     3    41   1
    46     4    42   1
    47     5    43   1
    48     6    44   1
    49     7    45   1
    50     7    46   1
    51     7    47   1
    52     9    48   1
    53    14    49   1
    54    15    50   1
    55    16    51   1
    56    16    52   1
    57    17    53   1
    58    21    54   1
    59    23    55   1
    60    25    56   1
    61    26    57   1
    62    27    58   1
    63    28    59   1
    64    32    60   1
    65    34    61   1
    66    37    62   1
@<TRIPOS>SUBSTRUCTURE
     1  MOL      1

