@<TRIPOS>MOLECULE
3nw9_ligand_014
    62    66
SMALL
GAST_HUCK
****
This file was generated by PARSER (from files_GN.cpp)

@<TRIPOS>ATOM
      1 C1         -7.6802   20.3264   17.4909 C.3         1 MOL       0.2034
      2 C2         -6.8712   19.3301   18.3657 C.3         1 MOL       0.1402
      3 O3         -6.5131   19.9387   19.6057 O.3         1 MOL      -0.3834
      4 C4         -5.6594   18.9563   17.4806 C.3         1 MOL       0.1189
      5 O5         -4.4003   19.0375   18.1461 O.3         1 MOL      -0.3846
      6 C6         -5.7530   19.9616   16.3134 C.3         1 MOL       0.1082
      7 C7        -13.7174   21.1378   16.8564 C.3         1 MOL      -0.0106
      8 N8        -11.2081   19.4482   17.5005 N.2         1 MOL      -0.2933
      9 C9         -9.9100   19.1487   17.6822 C.2         1 MOL       0.1151
     10 N10        -9.1162   20.2228   17.4557 N.pl3       1 MOL      -0.1882
     11 C11        -9.9456   21.2238   17.1005 C.ar        1 MOL       0.1683
     12 C12       -11.2492   20.7373   17.1408 C.ar        1 MOL       0.0876
     13 O13        -7.1603   20.1785   16.1619 O.3         1 MOL      -0.3296
     14 C14        -5.1963   19.4879   15.0564 C.2         1 MOL      -0.0658
     15 C15        -4.5267   20.2678   14.1916 C.2         1 MOL      -0.0744
     16 C16        -3.9948   19.7680   12.9372 C.3         1 MOL       0.0471
     17 N17        -3.2393   18.5641   13.1088 N.am        1 MOL      -0.2802
     18 C18        -1.9996   18.4655   13.5787 C.2         1 MOL       0.1986
     19 O19        -1.4069   19.4890   13.9017 O.2         1 MOL      -0.3908
     20 C20        -1.3618   17.2224   13.6996 C.ar        1 MOL       0.0720
     21 C21        -2.1194   16.0231   13.6999 C.ar        1 MOL      -0.0533
     22 C22        -1.5172   14.7525   13.8578 C.ar        1 MOL      -0.0339
     23 C23        -0.1155   14.6879   14.0170 C.ar        1 MOL      -0.0299
     24 C24        -2.3032   13.5646   13.8621 C.ar        1 MOL      -0.0299
     25 C25        -2.1562   12.6023   14.8930 C.ar        1 MOL      -0.0581
     26 C26        -2.9378   11.4330   14.9017 C.ar        1 MOL      -0.0288
     27 C27        -3.2520   13.3196   12.8406 C.ar        1 MOL      -0.0581
     28 C28        -4.0269   12.1444   12.8427 C.ar        1 MOL      -0.0288
     29 C29        -3.8730   11.2020   13.8760 C.ar        1 MOL       0.1316
     30 F30        -4.5951   10.1140   13.8820 F           1 MOL      -0.1840
     31 C31         0.0497   17.1142   13.8443 C.ar        1 MOL       0.1393
     32 O32         0.8720   18.1952   13.7686 O.3         1 MOL      -0.3302
     33 C33         0.6615   15.8554   14.0112 C.ar        1 MOL       0.1232
     34 O34         2.0077   15.7515   14.1069 O.3         1 MOL      -0.3356
     35 C35       -12.3180   21.5949   16.8180 C.ar        1 MOL       0.0444
     36 N38       -12.0112   22.8787   16.4664 N.ar        1 MOL      -0.2825
     37 C39       -10.7305   23.3375   16.4255 C.ar        1 MOL       0.0619
     38 N40        -9.6980   22.5099   16.7443 N.ar        1 MOL      -0.2608
     39 H1         -7.4277   21.3422   17.8225 H           1 MOL       0.0998
     40 H2         -7.4416   18.4326   18.5964 H           1 MOL       0.0678
     41 H3         -5.9710   19.2697   20.0840 H           1 MOL       0.2101
     42 H4         -5.7839   17.9317   17.1139 H           1 MOL       0.0667
     43 H5         -4.3847   18.2654   18.7495 H           1 MOL       0.2102
     44 H6         -5.2761   20.9053   16.6131 H           1 MOL       0.0749
     45 H7        -14.3939   21.9474   16.5855 H           1 MOL       0.0446
     46 H8        -13.9677   20.7968   17.8605 H           1 MOL       0.0446
     47 H9        -13.8564   20.3171   16.1542 H           1 MOL       0.0446
     48 H10        -9.6001   18.2070   17.9324 H           1 MOL       0.1373
     49 H11        -5.3561   18.5370   14.8134 H           1 MOL       0.0477
     50 H12        -4.3950   21.2319   14.4018 H           1 MOL       0.0470
     51 H13        -3.3678   20.5266   12.4600 H           1 MOL       0.0643
     52 H14        -4.8269   19.5609   12.2626 H           1 MOL       0.0643
     53 H15        -3.6719   17.7428   12.8303 H           1 MOL       0.1864
     54 H16        -3.1379   16.0673   13.6256 H           1 MOL       0.0555
     55 H17         0.3531   13.7807   14.1120 H           1 MOL       0.0543
     56 H18        -1.4895   12.7548   15.6532 H           1 MOL       0.0601
     57 H19        -2.8242   10.7528   15.6567 H           1 MOL       0.0602
     58 H20        -3.3780   13.9878   12.0747 H           1 MOL       0.0601
     59 H21        -4.7006   11.9799   12.0923 H           1 MOL       0.0602
     60 H22         0.6008   18.6537   12.9469 H           1 MOL       0.2479
     61 H23         2.2275   16.1059   14.9973 H           1 MOL       0.2443
     62 H24       -10.5467   24.3042   16.1536 H           1 MOL       0.1019
@<TRIPOS>BOND
     1     1     2   1
     2    10     1   1
     3     1    13   1
     4     2     3   1
     5     2     4   1
     6     4     5   1
     7     6     4   1
     8    13     6   1
     9     6    14   1
    10    35     7   1
    11     8     9   2
    12    12     8   1
    13    10     9   1
    14    11    10   1
    15    12    11  ar
    16    11    38  ar
    17    12    35  ar
    18    14    15   2
    19    15    16   1
    20    16    17   1
    21    17    18  am
    22    18    19   2
    23    18    20   1
    24    20    21  ar
    25    20    31  ar
    26    21    22  ar
    27    22    23  ar
    28    22    24   1
    29    23    33  ar
    30    24    25  ar
    31    24    27  ar
    32    25    26  ar
    33    26    29  ar
    34    27    28  ar
    35    28    29  ar
    36    29    30   1
    37    31    32   1
    38    31    33  ar
    39    33    34   1
    40    35    36  ar
    41    36    37  ar
    42    37    38  ar
    43     1    39   1
    44     2    40   1
    45     3    41   1
    46     4    42   1
    47     5    43   1
    48     6    44   1
    49     7    45   1
    50     7    46   1
    51     7    47   1
    52     9    48   1
    53    14    49   1
    54    15    50   1
    55    16    51   1
    56    16    52   1
    57    17    53   1
    58    21    54   1
    59    23    55   1
    60    25    56   1
    61    26    57   1
    62    27    58   1
    63    28    59   1
    64    32    60   1
    65    34    61   1
    66    37    62   1
@<TRIPOS>SUBSTRUCTURE
     1  MOL      1

