@<TRIPOS>MOLECULE
3nw9_ligand_020
    62    66
SMALL
GAST_HUCK
****
This file was generated by PARSER (from files_GN.cpp)

@<TRIPOS>ATOM
      1 C1          1.4587   12.3917   16.0134 C.3         1 MOL       0.2034
      2 C2          1.7413   12.2272   14.5059 C.3         1 MOL       0.1402
      3 O3          3.0817   11.8260   14.2271 O.3         1 MOL      -0.3834
      4 C4          1.3708   13.5990   13.9186 C.3         1 MOL       0.1189
      5 O5          2.5010   14.4757   13.8193 O.3         1 MOL      -0.3846
      6 C6          0.3373   14.1578   14.9301 C.3         1 MOL       0.1082
      7 C7         -0.4893    7.9886   19.8088 C.3         1 MOL      -0.0106
      8 N8          1.2087    9.0675   17.4520 N.2         1 MOL      -0.2933
      9 C9          1.7038    9.9532   16.5633 C.2         1 MOL       0.1151
     10 N10         1.1866   11.1845   16.7554 N.pl3       1 MOL      -0.1882
     11 C11         0.3614   11.0841   17.8115 C.ar        1 MOL       0.1683
     12 C12         0.3646    9.7562   18.2368 C.ar        1 MOL       0.0876
     13 O13         0.3063   13.2481   16.0390 O.3         1 MOL      -0.3296
     14 C14        -1.0148   14.2850   14.4137 C.2         1 MOL      -0.0658
     15 C15        -1.5331   15.4465   13.9682 C.2         1 MOL      -0.0744
     16 C16        -2.8794   15.5800   13.4484 C.3         1 MOL       0.0471
     17 N17        -3.4244   16.8902   13.6454 N.am        1 MOL      -0.2802
     18 C18        -4.1513   17.3273   14.6716 C.2         1 MOL       0.1986
     19 O19        -4.4040   16.5435   15.5840 O.2         1 MOL      -0.3908
     20 C20        -4.6991   18.6255   14.6927 C.ar        1 MOL       0.0720
     21 C21        -5.2720   19.1798   13.5241 C.ar        1 MOL      -0.0533
     22 C22        -5.8823   20.4543   13.4961 C.ar        1 MOL      -0.0339
     23 C23        -5.8778   21.2159   14.6888 C.ar        1 MOL      -0.0299
     24 C24        -6.5351   20.9602   12.3247 C.ar        1 MOL      -0.0299
     25 C25        -7.2109   20.0810   11.4381 C.ar        1 MOL      -0.0581
     26 C26        -7.9110   20.5659   10.3211 C.ar        1 MOL      -0.0288
     27 C27        -6.5605   22.3500   12.0257 C.ar        1 MOL      -0.0581
     28 C28        -7.2605   22.8357   10.9075 C.ar        1 MOL      -0.0288
     29 C29        -7.9366   21.9460   10.0549 C.ar        1 MOL       0.1316
     30 F30        -8.5934   22.3923    9.0169 F           1 MOL      -0.1840
     31 C31        -4.7334   19.4167   15.8759 C.ar        1 MOL       0.1393
     32 O32        -4.1978   18.9691   17.0440 O.3         1 MOL      -0.3302
     33 C33        -5.3047   20.7081   15.8650 C.ar        1 MOL       0.1232
     34 O34        -5.3315   21.4564   16.9989 O.3         1 MOL      -0.3356
     35 C35        -0.4497    9.3725   19.3231 C.ar        1 MOL       0.0444
     36 N38        -1.2052   10.3420   19.9148 N.ar        1 MOL      -0.2825
     37 C39        -1.1943   11.6391   19.4947 C.ar        1 MOL       0.0619
     38 N40        -0.4079   12.0079   18.4428 N.ar        1 MOL      -0.2608
     39 H1          2.2960   12.9107   16.4908 H           1 MOL       0.0998
     40 H2          1.0630   11.4721   14.0904 H           1 MOL       0.0678
     41 H3          3.6571   12.5317   14.5872 H           1 MOL       0.2101
     42 H4          0.9558   13.4825   12.9142 H           1 MOL       0.0667
     43 H5          3.0616   14.3107   14.6080 H           1 MOL       0.2102
     44 H6          0.6693   15.1290   15.3157 H           1 MOL       0.0749
     45 H7         -1.1810    7.8874   20.6475 H           1 MOL       0.0446
     46 H8          0.5045    7.6847   20.1407 H           1 MOL       0.0446
     47 H9         -0.8182    7.3229   19.0094 H           1 MOL       0.0446
     48 H10         2.3810    9.6929   15.8442 H           1 MOL       0.1373
     49 H11        -1.6042   13.4881   14.4257 H           1 MOL       0.0477
     50 H12        -0.9497   16.2545   13.9528 H           1 MOL       0.0470
     51 H13        -3.5679   14.8283   13.8574 H           1 MOL       0.0643
     52 H14        -2.8258   15.4059   12.3713 H           1 MOL       0.0643
     53 H15        -3.2589   17.5221   12.9326 H           1 MOL       0.1864
     54 H16        -5.2687   18.6306   12.6613 H           1 MOL       0.0555
     55 H17        -6.3310   22.1375   14.7179 H           1 MOL       0.0543
     56 H18        -7.2211   19.0799   11.6158 H           1 MOL       0.0601
     57 H19        -8.4010   19.9135    9.7036 H           1 MOL       0.0602
     58 H20        -6.0638   23.0129   12.6228 H           1 MOL       0.0601
     59 H21        -7.2703   23.8428   10.7174 H           1 MOL       0.0602
     60 H22        -3.4093   19.5324   17.2229 H           1 MOL       0.2479
     61 H23        -4.9798   22.3425   16.7386 H           1 MOL       0.2443
     62 H24        -1.7741   12.3335   19.9650 H           1 MOL       0.1019
@<TRIPOS>BOND
     1     1     2   1
     2    10     1   1
     3     1    13   1
     4     2     3   1
     5     2     4   1
     6     4     5   1
     7     6     4   1
     8    13     6   1
     9     6    14   1
    10    35     7   1
    11     8     9   2
    12    12     8   1
    13    10     9   1
    14    11    10   1
    15    12    11  ar
    16    11    38  ar
    17    12    35  ar
    18    14    15   2
    19    15    16   1
    20    16    17   1
    21    17    18  am
    22    18    19   2
    23    18    20   1
    24    20    21  ar
    25    20    31  ar
    26    21    22  ar
    27    22    23  ar
    28    22    24   1
    29    23    33  ar
    30    24    25  ar
    31    24    27  ar
    32    25    26  ar
    33    26    29  ar
    34    27    28  ar
    35    28    29  ar
    36    29    30   1
    37    31    32   1
    38    31    33  ar
    39    33    34   1
    40    35    36  ar
    41    36    37  ar
    42    37    38  ar
    43     1    39   1
    44     2    40   1
    45     3    41   1
    46     4    42   1
    47     5    43   1
    48     6    44   1
    49     7    45   1
    50     7    46   1
    51     7    47   1
    52     9    48   1
    53    14    49   1
    54    15    50   1
    55    16    51   1
    56    16    52   1
    57    17    53   1
    58    21    54   1
    59    23    55   1
    60    25    56   1
    61    26    57   1
    62    27    58   1
    63    28    59   1
    64    32    60   1
    65    34    61   1
    66    37    62   1
@<TRIPOS>SUBSTRUCTURE
     1  MOL      1

