@<TRIPOS>MOLECULE
3nw9_ligand_074
    62    66
SMALL
GAST_HUCK
****
This file was generated by PARSER (from files_GN.cpp)

@<TRIPOS>ATOM
      1 C1         -4.9700   19.1767   15.5604 C.3         1 MOL       0.2034
      2 C2         -4.7241   20.3804   16.5052 C.3         1 MOL       0.1402
      3 O3         -5.5959   21.4531   16.1233 O.3         1 MOL      -0.3834
      4 C4         -3.2475   20.6694   16.2030 C.3         1 MOL       0.1189
      5 O5         -2.7921   21.9302   16.6777 O.3         1 MOL      -0.3846
      6 C6         -3.2244   20.5260   14.6618 C.3         1 MOL       0.1082
      7 C7         -3.6169   13.7535   18.1711 C.3         1 MOL      -0.0106
      8 N8         -4.1288   15.6733   15.8250 N.2         1 MOL      -0.2933
      9 C9         -4.3991   16.8135   15.1643 C.2         1 MOL       0.1151
     10 N10        -4.6289   17.8448   16.0207 N.pl3       1 MOL      -0.1882
     11 C11        -4.5315   17.3166   17.2618 C.ar        1 MOL       0.1683
     12 C12        -4.1948   15.9675   17.1242 C.ar        1 MOL       0.0876
     13 O13        -4.1882   19.4903   14.3854 O.3         1 MOL      -0.3296
     14 C14        -1.9767   20.2094   13.9843 C.2         1 MOL      -0.0658
     15 C15        -0.7452   20.3096   14.5199 C.2         1 MOL      -0.0744
     16 C16         0.4203   19.6573   13.9402 C.3         1 MOL       0.0471
     17 N17         0.1624   18.2840   13.6173 N.am        1 MOL      -0.2802
     18 C18        -0.2001   17.3357   14.4659 C.2         1 MOL       0.1986
     19 O19        -0.2548   17.5671   15.6761 O.2         1 MOL      -0.3908
     20 C20        -0.6509   16.1038   14.0316 C.ar        1 MOL       0.0720
     21 C21         0.0529   14.9488   14.4416 C.ar        1 MOL      -0.0533
     22 C22        -0.4280   13.6528   14.1602 C.ar        1 MOL      -0.0339
     23 C23        -1.6738   13.5224   13.5129 C.ar        1 MOL      -0.0299
     24 C24         0.3492   12.5108   14.4890 C.ar        1 MOL      -0.0299
     25 C25        -0.2168   11.4041   15.1648 C.ar        1 MOL      -0.0581
     26 C26         0.5602   10.2688   15.4604 C.ar        1 MOL      -0.0288
     27 C27         1.7166   12.4515   14.1203 C.ar        1 MOL      -0.0581
     28 C28         2.4952   11.3210   14.4182 C.ar        1 MOL      -0.0288
     29 C29         1.9183   10.2269   15.0884 C.ar        1 MOL       0.1316
     30 F30         2.6339    9.1703   15.3642 F           1 MOL      -0.1840
     31 C31        -1.8542   15.9478   13.2928 C.ar        1 MOL       0.1393
     32 O32        -2.5781   17.0134   12.8652 O.3         1 MOL      -0.3302
     33 C33        -2.3726   14.6559   13.0594 C.ar        1 MOL       0.1232
     34 O34        -3.5417   14.4564   12.3938 O.3         1 MOL      -0.3356
     35 C35        -4.0129   15.1674   18.2735 C.ar        1 MOL       0.0444
     36 N38        -4.2082   15.7546   19.4841 N.ar        1 MOL      -0.2825
     37 C39        -4.5610   17.0640   19.6096 C.ar        1 MOL       0.0619
     38 N40        -4.7163   17.8382   18.5021 N.ar        1 MOL      -0.2608
     39 H1         -6.0224   19.1513   15.2727 H           1 MOL       0.0998
     40 H2         -4.8917   20.1720   17.5592 H           1 MOL       0.0678
     41 H3         -5.1446   22.2873   16.3670 H           1 MOL       0.2101
     42 H4         -2.6285   19.8973   16.6686 H           1 MOL       0.0667
     43 H5         -3.4298   22.5804   16.3286 H           1 MOL       0.2102
     44 H6         -3.6019   21.4501   14.2124 H           1 MOL       0.0749
     45 H7         -3.5790   13.2894   19.1586 H           1 MOL       0.0446
     46 H8         -2.6271   13.6821   17.7158 H           1 MOL       0.0446
     47 H9         -4.3311   13.2015   17.5560 H           1 MOL       0.0446
     48 H10        -4.4271   16.8731   14.1463 H           1 MOL       0.1373
     49 H11        -2.0503   19.8339   13.0662 H           1 MOL       0.0477
     50 H12        -0.6353   20.7514   15.4001 H           1 MOL       0.0470
     51 H13         1.2655   19.7064   14.6371 H           1 MOL       0.0643
     52 H14         0.7158   20.1737   13.0264 H           1 MOL       0.0643
     53 H15         0.1985   18.0432   12.6806 H           1 MOL       0.1864
     54 H16         0.9330   15.0530   14.9591 H           1 MOL       0.0555
     55 H17        -2.0601   12.5951   13.3148 H           1 MOL       0.0543
     56 H18        -1.1975   11.4184   15.4553 H           1 MOL       0.0601
     57 H19         0.1357    9.4739   15.9442 H           1 MOL       0.0602
     58 H20         2.1536   13.2266   13.6136 H           1 MOL       0.0601
     59 H21         3.4787   11.2986   14.1387 H           1 MOL       0.0602
     60 H22        -1.9268   17.5996   12.4052 H           1 MOL       0.2479
     61 H23        -3.4747   14.9568   11.5571 H           1 MOL       0.2443
     62 H24        -4.7021   17.4719   20.5352 H           1 MOL       0.1019
@<TRIPOS>BOND
     1     1     2   1
     2    10     1   1
     3     1    13   1
     4     2     3   1
     5     2     4   1
     6     4     5   1
     7     6     4   1
     8    13     6   1
     9     6    14   1
    10    35     7   1
    11     8     9   2
    12    12     8   1
    13    10     9   1
    14    11    10   1
    15    12    11  ar
    16    11    38  ar
    17    12    35  ar
    18    14    15   2
    19    15    16   1
    20    16    17   1
    21    17    18  am
    22    18    19   2
    23    18    20   1
    24    20    21  ar
    25    20    31  ar
    26    21    22  ar
    27    22    23  ar
    28    22    24   1
    29    23    33  ar
    30    24    25  ar
    31    24    27  ar
    32    25    26  ar
    33    26    29  ar
    34    27    28  ar
    35    28    29  ar
    36    29    30   1
    37    31    32   1
    38    31    33  ar
    39    33    34   1
    40    35    36  ar
    41    36    37  ar
    42    37    38  ar
    43     1    39   1
    44     2    40   1
    45     3    41   1
    46     4    42   1
    47     5    43   1
    48     6    44   1
    49     7    45   1
    50     7    46   1
    51     7    47   1
    52     9    48   1
    53    14    49   1
    54    15    50   1
    55    16    51   1
    56    16    52   1
    57    17    53   1
    58    21    54   1
    59    23    55   1
    60    25    56   1
    61    26    57   1
    62    27    58   1
    63    28    59   1
    64    32    60   1
    65    34    61   1
    66    37    62   1
@<TRIPOS>SUBSTRUCTURE
     1  MOL      1

