@<TRIPOS>MOLECULE
3nw9_ligand_070
    62    66
SMALL
GAST_HUCK
****
This file was generated by PARSER (from files_GN.cpp)

@<TRIPOS>ATOM
      1 C1         -8.8786   12.5118   13.6084 C.3         1 MOL       0.2034
      2 C2         -8.9639   13.2862   12.2809 C.3         1 MOL       0.1402
      3 O3        -10.1162   12.9204   11.5235 O.3         1 MOL      -0.3834
      4 C4         -7.6243   12.9205   11.6272 C.3         1 MOL       0.1189
      5 O5         -7.7218   11.6973   10.8935 O.3         1 MOL      -0.3846
      6 C6         -6.6781   12.7616   12.8555 C.3         1 MOL       0.1082
      7 C7        -13.1305   13.8226   17.8063 C.3         1 MOL      -0.0106
      8 N8        -10.6278   14.4517   16.0993 N.2         1 MOL      -0.2933
      9 C9         -9.6485   14.2702   15.1950 C.2         1 MOL       0.1151
     10 N10        -9.7305   13.0435   14.6310 N.pl3       1 MOL      -0.1882
     11 C11       -10.7751   12.4259   15.2066 C.ar        1 MOL       0.1683
     12 C12       -11.3392   13.3158   16.1173 C.ar        1 MOL       0.0876
     13 O13        -7.5110   12.5763   14.0155 O.3         1 MOL      -0.3296
     14 C14        -5.7775   13.8817   13.0942 C.2         1 MOL      -0.0658
     15 C15        -5.0751   14.0389   14.2321 C.2         1 MOL      -0.0744
     16 C16        -4.0979   15.0988   14.4354 C.3         1 MOL       0.0471
     17 N17        -2.7699   14.6277   14.6964 N.am        1 MOL      -0.2802
     18 C18        -2.1052   13.6952   14.0255 C.2         1 MOL       0.1986
     19 O19        -2.6001   13.0593   13.1044 O.2         1 MOL      -0.3908
     20 C20        -0.8137   13.3883   14.3895 C.ar        1 MOL       0.0720
     21 C21        -0.5287   12.1422   14.9965 C.ar        1 MOL      -0.0533
     22 C22         0.7988   11.7785   15.3174 C.ar        1 MOL      -0.0339
     23 C23         1.8452   12.6784   15.0177 C.ar        1 MOL      -0.0299
     24 C24         1.0776   10.5462   15.9575 C.ar        1 MOL      -0.0299
     25 C25         0.6145   10.3095   17.2730 C.ar        1 MOL      -0.0581
     26 C26         0.9144    9.1021   17.9310 C.ar        1 MOL      -0.0288
     27 C27         1.8527    9.5524   15.3148 C.ar        1 MOL      -0.0581
     28 C28         2.1475    8.3421   15.9715 C.ar        1 MOL      -0.0288
     29 C29         1.6770    8.1147   17.2790 C.ar        1 MOL       0.1316
     30 F30         1.9480    6.9915   17.8862 F           1 MOL      -0.1840
     31 C31         0.2465   14.2811   14.1071 C.ar        1 MOL       0.1393
     32 O32         0.0193   15.4595   13.4753 O.3         1 MOL      -0.3302
     33 C33         1.5714   13.9274   14.4254 C.ar        1 MOL       0.1232
     34 O34         2.5755   14.7942   14.1429 O.3         1 MOL      -0.3356
     35 C35       -12.4778   12.9197   16.8447 C.ar        1 MOL       0.0444
     36 N38       -12.9655   11.6654   16.6224 N.ar        1 MOL      -0.2825
     37 C39       -12.3936   10.8058   15.7335 C.ar        1 MOL       0.0619
     38 N40       -11.2996   11.1877   15.0225 N.ar        1 MOL      -0.2608
     39 H1         -9.1141   11.4568   13.4206 H           1 MOL       0.0998
     40 H2         -8.9902   14.3649   12.4630 H           1 MOL       0.0678
     41 H3        -10.0693   13.4644   10.7086 H           1 MOL       0.2101
     42 H4         -7.3145   13.7055   10.9303 H           1 MOL       0.0667
     43 H5         -8.3672   11.8757   10.1738 H           1 MOL       0.2102
     44 H6         -6.0607   11.8686   12.7350 H           1 MOL       0.0749
     45 H7        -13.9962   13.3440   18.2674 H           1 MOL       0.0446
     46 H8        -13.4644   14.7275   17.2956 H           1 MOL       0.0446
     47 H9        -12.4242   14.0967   18.5925 H           1 MOL       0.0446
     48 H10        -8.9484   14.9795   14.9672 H           1 MOL       0.1373
     49 H11        -5.6431   14.5416   12.3650 H           1 MOL       0.0477
     50 H12        -5.1950   13.3817   14.9706 H           1 MOL       0.0470
     51 H13        -4.4170   15.6786   15.3052 H           1 MOL       0.0643
     52 H14        -4.0593   15.7887   13.5879 H           1 MOL       0.0643
     53 H15        -2.3016   15.0479   15.4358 H           1 MOL       0.1864
     54 H16        -1.2951   11.4903   15.1984 H           1 MOL       0.0555
     55 H17         2.8125   12.4334   15.2429 H           1 MOL       0.0543
     56 H18         0.0742   11.0226   17.7699 H           1 MOL       0.0601
     57 H19         0.5792    8.9467   18.8842 H           1 MOL       0.0602
     58 H20         2.2038    9.6983   14.3646 H           1 MOL       0.0601
     59 H21         2.7071    7.6298   15.4987 H           1 MOL       0.0602
     60 H22         0.0074   16.1312   14.1878 H           1 MOL       0.2479
     61 H23         3.2470   14.6530   14.8413 H           1 MOL       0.2443
     62 H24       -12.7885    9.8760   15.5963 H           1 MOL       0.1019
@<TRIPOS>BOND
     1     1     2   1
     2    10     1   1
     3     1    13   1
     4     2     3   1
     5     2     4   1
     6     4     5   1
     7     6     4   1
     8    13     6   1
     9     6    14   1
    10    35     7   1
    11     8     9   2
    12    12     8   1
    13    10     9   1
    14    11    10   1
    15    12    11  ar
    16    11    38  ar
    17    12    35  ar
    18    14    15   2
    19    15    16   1
    20    16    17   1
    21    17    18  am
    22    18    19   2
    23    18    20   1
    24    20    21  ar
    25    20    31  ar
    26    21    22  ar
    27    22    23  ar
    28    22    24   1
    29    23    33  ar
    30    24    25  ar
    31    24    27  ar
    32    25    26  ar
    33    26    29  ar
    34    27    28  ar
    35    28    29  ar
    36    29    30   1
    37    31    32   1
    38    31    33  ar
    39    33    34   1
    40    35    36  ar
    41    36    37  ar
    42    37    38  ar
    43     1    39   1
    44     2    40   1
    45     3    41   1
    46     4    42   1
    47     5    43   1
    48     6    44   1
    49     7    45   1
    50     7    46   1
    51     7    47   1
    52     9    48   1
    53    14    49   1
    54    15    50   1
    55    16    51   1
    56    16    52   1
    57    17    53   1
    58    21    54   1
    59    23    55   1
    60    25    56   1
    61    26    57   1
    62    27    58   1
    63    28    59   1
    64    32    60   1
    65    34    61   1
    66    37    62   1
@<TRIPOS>SUBSTRUCTURE
     1  MOL      1

