@<TRIPOS>MOLECULE
3nw9_ligand_042
    62    66
SMALL
GAST_HUCK
****
This file was generated by PARSER (from files_GN.cpp)

@<TRIPOS>ATOM
      1 C1         -4.2088   19.0102   14.7364 C.3         1 MOL       0.2034
      2 C2         -3.7367   20.2183   15.5894 C.3         1 MOL       0.1402
      3 O3         -4.8044   20.8415   16.3040 O.3         1 MOL      -0.3834
      4 C4         -3.0491   21.1159   14.5578 C.3         1 MOL       0.1189
      5 O5         -4.0055   21.9821   13.9354 O.3         1 MOL      -0.3846
      6 C6         -2.4906   20.0948   13.5408 C.3         1 MOL       0.1082
      7 C7         -4.4275   13.1507   16.5258 C.3         1 MOL      -0.0106
      8 N8         -4.4494   16.1927   17.0034 N.2         1 MOL      -0.2933
      9 C9         -4.4139   17.5066   16.7332 C.2         1 MOL       0.1151
     10 N10        -4.2495   17.7367   15.4084 N.pl3       1 MOL      -0.1882
     11 C11        -4.2032   16.5228   14.8241 C.ar        1 MOL       0.1683
     12 C12        -4.3208   15.5664   15.8285 C.ar        1 MOL       0.0876
     13 O13        -3.3374   18.9409   13.5910 O.3         1 MOL      -0.3296
     14 C14        -1.1004   19.6787   13.7110 C.2         1 MOL      -0.0658
     15 C15        -0.6639   18.7861   14.6192 C.2         1 MOL      -0.0744
     16 C16         0.6785   18.2261   14.6156 C.3         1 MOL       0.0471
     17 N17         0.7682   16.7991   14.7654 N.am        1 MOL      -0.2802
     18 C18        -0.0165   15.8569   14.2394 C.2         1 MOL       0.1986
     19 O19        -1.0328   16.1691   13.6314 O.2         1 MOL      -0.3908
     20 C20         0.2678   14.5079   14.4421 C.ar        1 MOL       0.0720
     21 C21        -0.7848   13.5965   14.7286 C.ar        1 MOL      -0.0533
     22 C22        -0.5387   12.2212   14.9618 C.ar        1 MOL      -0.0339
     23 C23         0.7885   11.7413   14.8607 C.ar        1 MOL      -0.0299
     24 C24        -1.6090   11.3396   15.2707 C.ar        1 MOL      -0.0299
     25 C25        -1.5600   10.5128   16.4200 C.ar        1 MOL      -0.0581
     26 C26        -2.6202    9.6342   16.7209 C.ar        1 MOL      -0.0288
     27 C27        -2.7266   11.2358   14.4091 C.ar        1 MOL      -0.0581
     28 C28        -3.7744   10.3421   14.6992 C.ar        1 MOL      -0.0288
     29 C29        -3.7255    9.5435   15.8550 C.ar        1 MOL       0.1316
     30 F30        -4.6947    8.7131   16.1180 F           1 MOL      -0.1840
     31 C31         1.5896   13.9962   14.3697 C.ar        1 MOL       0.1393
     32 O32         2.6248   14.8022   14.0291 O.3         1 MOL      -0.3302
     33 C33         1.8451   12.6231   14.5657 C.ar        1 MOL       0.1232
     34 O34         3.1078   12.1381   14.4407 O.3         1 MOL      -0.3356
     35 C35        -4.3092   14.2002   15.4982 C.ar        1 MOL       0.0444
     36 N38        -4.1871   13.8793   14.1820 N.ar        1 MOL      -0.2825
     37 C39        -4.0650   14.8166   13.2032 C.ar        1 MOL       0.0619
     38 N40        -4.0708   16.1392   13.5258 N.ar        1 MOL      -0.2608
     39 H1         -5.2120   19.2197   14.3489 H           1 MOL       0.0998
     40 H2         -2.9870   19.9060   16.3224 H           1 MOL       0.0678
     41 H3         -5.5162   20.9827   15.6441 H           1 MOL       0.2101
     42 H4         -2.2640   21.7302   15.0097 H           1 MOL       0.0667
     43 H5         -4.3569   22.5438   14.6570 H           1 MOL       0.2102
     44 H6         -2.5840   20.5214   12.5366 H           1 MOL       0.0749
     45 H7         -4.5368   12.1671   16.0578 H           1 MOL       0.0446
     46 H8         -5.2985   13.3430   17.1627 H           1 MOL       0.0446
     47 H9         -3.5332   13.1493   17.1549 H           1 MOL       0.0446
     48 H10        -4.5136   18.2292   17.4522 H           1 MOL       0.1373
     49 H11        -0.4393   20.0264   13.0475 H           1 MOL       0.0477
     50 H12        -1.3038   18.4205   15.2844 H           1 MOL       0.0470
     51 H13         1.2169   18.6608   15.4628 H           1 MOL       0.0643
     52 H14         1.2319   18.4961   13.7110 H           1 MOL       0.0643
     53 H15         1.5212   16.4878   15.2901 H           1 MOL       0.1864
     54 H16        -1.7461   13.9435   14.7989 H           1 MOL       0.0555
     55 H17         0.9913   10.7450   14.9775 H           1 MOL       0.0543
     56 H18        -0.7602   10.5538   17.0585 H           1 MOL       0.0601
     57 H19        -2.5795    9.0583   17.5645 H           1 MOL       0.0602
     58 H20        -2.7675   11.7787   13.5422 H           1 MOL       0.0601
     59 H21        -4.5503   10.2427   14.0426 H           1 MOL       0.0602
     60 H22         3.3276   14.6240   14.6905 H           1 MOL       0.2479
     61 H23         3.4296   12.0175   15.3604 H           1 MOL       0.2443
     62 H24        -3.9620   14.5257   12.2289 H           1 MOL       0.1019
@<TRIPOS>BOND
     1     1     2   1
     2    10     1   1
     3     1    13   1
     4     2     3   1
     5     2     4   1
     6     4     5   1
     7     6     4   1
     8    13     6   1
     9     6    14   1
    10    35     7   1
    11     8     9   2
    12    12     8   1
    13    10     9   1
    14    11    10   1
    15    12    11  ar
    16    11    38  ar
    17    12    35  ar
    18    14    15   2
    19    15    16   1
    20    16    17   1
    21    17    18  am
    22    18    19   2
    23    18    20   1
    24    20    21  ar
    25    20    31  ar
    26    21    22  ar
    27    22    23  ar
    28    22    24   1
    29    23    33  ar
    30    24    25  ar
    31    24    27  ar
    32    25    26  ar
    33    26    29  ar
    34    27    28  ar
    35    28    29  ar
    36    29    30   1
    37    31    32   1
    38    31    33  ar
    39    33    34   1
    40    35    36  ar
    41    36    37  ar
    42    37    38  ar
    43     1    39   1
    44     2    40   1
    45     3    41   1
    46     4    42   1
    47     5    43   1
    48     6    44   1
    49     7    45   1
    50     7    46   1
    51     7    47   1
    52     9    48   1
    53    14    49   1
    54    15    50   1
    55    16    51   1
    56    16    52   1
    57    17    53   1
    58    21    54   1
    59    23    55   1
    60    25    56   1
    61    26    57   1
    62    27    58   1
    63    28    59   1
    64    32    60   1
    65    34    61   1
    66    37    62   1
@<TRIPOS>SUBSTRUCTURE
     1  MOL      1

