@<TRIPOS>MOLECULE
3oe5_ligand_018
    50    52
SMALL
GAST_HUCK
****
This file was generated by PARSER (from files_GN.cpp)

@<TRIPOS>ATOM
      1 C1         20.0929  -30.1823   13.5288 C.3         1 MOL       0.1170
      2 C2         20.3140  -31.6993   13.7226 C.3         1 MOL       0.1229
      3 C3         20.4102  -32.2156   12.2733 C.3         1 MOL       0.1499
      4 O4         21.1003  -31.1752   11.5834 O.3         1 MOL      -0.3460
      5 C5         20.5297  -29.9412   12.0519 C.3         1 MOL       0.1063
      6 C6         21.5143  -28.8852   11.8588 C.2         1 MOL      -0.0658
      7 S7         21.1889  -33.8324   11.9951 S.3         1 MOL      -0.0558
      8 O8         18.7233  -29.8144   13.7168 O.3         1 MOL      -0.3847
      9 O9         19.2916  -32.3783   14.4562 O.3         1 MOL      -0.3853
     10 C10        21.3830  -27.8932   10.9602 C.2         1 MOL      -0.0744
     11 C11        22.5040  -33.8034   13.1404 C.ar        1 MOL       0.0383
     12 C12        22.4638  -27.0019   10.5807 C.3         1 MOL       0.0473
     13 N13        23.1225  -27.2321    9.3185 N.am        1 MOL      -0.2765
     14 C14        22.7438  -27.9273    8.2452 C.2         1 MOL       0.2411
     15 C15        23.6079  -28.1146    7.1555 C.ar        1 MOL       0.2482
     16 C16        24.4694  -27.0939    6.6727 C.ar        1 MOL       0.3921
     17 C17        25.3362  -27.3428    5.5854 C.ar        1 MOL       0.3797
     18 C18        25.3548  -28.6047    4.9738 C.ar        1 MOL       0.1691
     19 C19        24.5058  -29.6466    5.4117 C.ar        1 MOL       0.2168
     20 C20        23.6432  -29.3743    6.5046 C.ar        1 MOL       0.1162
     21 N21        24.5285  -30.8610    4.7888 N.2         1 MOL      -0.1404
     22 O22        24.4229  -25.8337    7.1785 O.3         1 MOL      -0.1763
     23 O23        26.1133  -26.3463    5.0842 O.3         1 MOL      -0.1825
     24 O24        21.6469  -28.4749    8.2343 O.2         1 MOL      -0.3823
     25 O25        25.3401  -31.1326    3.8025 O.2         1 MOL      -0.4541
     26 O26        23.8009  -31.7638    5.1027 O.2         1 MOL      -0.4541
     27 C27        23.6560  -33.0191   12.9226 C.ar        1 MOL      -0.0217
     28 C28        24.6981  -33.0558   13.8712 C.ar        1 MOL       0.0039
     29 N29        24.5871  -33.8475   14.9658 N.ar        1 MOL      -0.3066
     30 C30        23.4926  -34.6193   15.2037 C.ar        1 MOL       0.0039
     31 C31        22.4293  -34.6274   14.2819 C.ar        1 MOL      -0.0217
     32 H1         20.6967  -29.6187   14.2495 H           1 MOL       0.0667
     33 H2         21.2627  -31.8453   14.2474 H           1 MOL       0.0659
     34 H3         19.3981  -32.2946   11.8577 H           1 MOL       0.0771
     35 H4         19.6398  -29.7474   11.4404 H           1 MOL       0.0748
     36 H5         22.3609  -28.9542   12.3887 H           1 MOL       0.0477
     37 H6         18.7195  -28.8348   13.7104 H           1 MOL       0.2102
     38 H7         19.1272  -31.8193   15.2414 H           1 MOL       0.2101
     39 H8         20.5449  -27.8399   10.4404 H           1 MOL       0.0470
     40 H9         23.2472  -27.0271   11.3512 H           1 MOL       0.0643
     41 H10        22.0750  -25.9806   10.5692 H           1 MOL       0.0643
     42 H11        24.0066  -26.8348    9.2607 H           1 MOL       0.1867
     43 H12        25.9804  -28.7457    4.1801 H           1 MOL       0.1086
     44 H13        23.0386  -30.1314    6.8476 H           1 MOL       0.1563
     45 H14        25.3526  -25.5646    7.3368 H           1 MOL       0.3540
     46 H15        27.0402  -26.5528    5.3527 H           1 MOL       0.3497
     47 H16        23.7446  -32.4288   12.0912 H           1 MOL       0.0660
     48 H17        25.5421  -32.4998   13.7345 H           1 MOL       0.0803
     49 H18        23.4531  -35.2048   16.0452 H           1 MOL       0.0803
     50 H19        21.6160  -35.2232   14.4481 H           1 MOL       0.0660
@<TRIPOS>BOND
     1     1     2   1
     2     1     5   1
     3     1     8   1
     4     2     3   1
     5     2     9   1
     6     3     4   1
     7     3     7   1
     8     4     5   1
     9     5     6   1
    10     6    10   2
    11     7    11   1
    12    10    12   1
    13    11    27  ar
    14    11    31  ar
    15    12    13   1
    16    13    14  am
    17    14    15   1
    18    14    24   2
    19    15    16  ar
    20    15    20  ar
    21    16    17  ar
    22    16    22   1
    23    17    18  ar
    24    17    23   1
    25    18    19  ar
    26    19    20  ar
    27    19    21   1
    28    21    25   2
    29    21    26   2
    30    27    28  ar
    31    28    29  ar
    32    29    30  ar
    33    30    31  ar
    34     1    32   1
    35     2    33   1
    36     3    34   1
    37     5    35   1
    38     6    36   1
    39     8    37   1
    40     9    38   1
    41    10    39   1
    42    12    40   1
    43    12    41   1
    44    13    42   1
    45    18    43   1
    46    20    44   1
    47    22    45   1
    48    23    46   1
    49    27    47   1
    50    28    48   1
    51    30    49   1
    52    31    50   1
@<TRIPOS>SUBSTRUCTURE
     1  MOL      1

