@<TRIPOS>MOLECULE
3oe5_ligand_034
    50    52
SMALL
GAST_HUCK
****
This file was generated by PARSER (from files_GN.cpp)

@<TRIPOS>ATOM
      1 C1         28.4352  -32.8664    6.2626 C.3         1 MOL       0.1170
      2 C2         29.5677  -32.4887    5.2988 C.3         1 MOL       0.1229
      3 C3         28.9356  -32.8564    3.9395 C.3         1 MOL       0.1499
      4 O4         27.5166  -32.6615    4.0566 O.3         1 MOL      -0.3460
      5 C5         27.1688  -32.4838    5.4459 C.3         1 MOL       0.1063
      6 C6         26.6972  -31.1243    5.7055 C.2         1 MOL      -0.0658
      7 S7         29.6872  -31.9978    2.5248 S.3         1 MOL      -0.0558
      8 O8         28.4430  -34.2699    6.5436 O.3         1 MOL      -0.3847
      9 O9         30.7801  -33.1989    5.5693 O.3         1 MOL      -0.3853
     10 C10        26.1567  -30.3257    4.7690 C.2         1 MOL      -0.0744
     11 C11        28.7076  -30.5543    2.4676 C.ar        1 MOL       0.0383
     12 C12        25.7799  -28.9490    5.0272 C.3         1 MOL       0.0473
     13 N13        24.8022  -28.8808    6.0665 N.am        1 MOL      -0.2765
     14 C14        23.6305  -28.2646    6.0107 C.2         1 MOL       0.2411
     15 C15        22.8161  -28.3180    7.1172 C.ar        1 MOL       0.2482
     16 C16        22.8699  -27.3144    8.1081 C.ar        1 MOL       0.3921
     17 C17        22.0044  -27.3906    9.2172 C.ar        1 MOL       0.3797
     18 C18        21.0919  -28.4579    9.3303 C.ar        1 MOL       0.1691
     19 C19        21.0261  -29.4774    8.3573 C.ar        1 MOL       0.2168
     20 C20        21.9036  -29.3882    7.2484 C.ar        1 MOL       0.1162
     21 N21        20.1316  -30.5036    8.4737 N.2         1 MOL      -0.1404
     22 O22        23.6888  -26.2394    7.9764 O.3         1 MOL      -0.1763
     23 O23        22.0294  -26.4123   10.1553 O.3         1 MOL      -0.1825
     24 O24        23.2255  -27.6699    5.0170 O.2         1 MOL      -0.3823
     25 O25        19.3182  -30.6114    9.4903 O.2         1 MOL      -0.4541
     26 O26        20.0328  -31.3800    7.6596 O.2         1 MOL      -0.4541
     27 C27        29.0135  -29.4414    3.2784 C.ar        1 MOL      -0.0217
     28 C28        28.2415  -28.2696    3.1497 C.ar        1 MOL       0.0039
     29 N29        27.2309  -28.2167    2.2427 N.ar        1 MOL      -0.3066
     30 C30        26.9094  -29.2716    1.4500 C.ar        1 MOL       0.0039
     31 C31        27.6528  -30.4664    1.5335 C.ar        1 MOL      -0.0217
     32 H1         28.5227  -32.3223    7.2096 H           1 MOL       0.0667
     33 H2         29.7512  -31.4108    5.3610 H           1 MOL       0.0659
     34 H3         29.0916  -33.9297    3.7674 H           1 MOL       0.0771
     35 H4         26.3397  -33.1637    5.6825 H           1 MOL       0.0748
     36 H5         26.7505  -30.7734    6.6363 H           1 MOL       0.0477
     37 H6         27.7275  -34.3997    7.2024 H           1 MOL       0.2102
     38 H7         31.4202  -32.8473    4.9182 H           1 MOL       0.2101
     39 H8         26.0674  -30.6613    3.8380 H           1 MOL       0.0470
     40 H9         25.4111  -28.4906    4.1014 H           1 MOL       0.0643
     41 H10        26.6545  -28.3765    5.3429 H           1 MOL       0.0643
     42 H11        25.0274  -29.3224    6.9033 H           1 MOL       0.1867
     43 H12        20.4770  -28.4764   10.1482 H           1 MOL       0.1086
     44 H13        21.8771  -30.1140    6.5254 H           1 MOL       0.1563
     45 H14        24.3088  -26.2919    8.7362 H           1 MOL       0.3540
     46 H15        21.1025  -26.1092   10.2323 H           1 MOL       0.3497
     47 H16        29.7839  -29.4691    3.9504 H           1 MOL       0.0660
     48 H17        28.4399  -27.4505    3.7263 H           1 MOL       0.0803
     49 H18        26.1375  -29.1931    0.7840 H           1 MOL       0.0803
     50 H19        27.4217  -31.2558    0.9251 H           1 MOL       0.0660
@<TRIPOS>BOND
     1     1     2   1
     2     1     5   1
     3     1     8   1
     4     2     3   1
     5     2     9   1
     6     3     4   1
     7     3     7   1
     8     4     5   1
     9     5     6   1
    10     6    10   2
    11     7    11   1
    12    10    12   1
    13    11    27  ar
    14    11    31  ar
    15    12    13   1
    16    13    14  am
    17    14    15   1
    18    14    24   2
    19    15    16  ar
    20    15    20  ar
    21    16    17  ar
    22    16    22   1
    23    17    18  ar
    24    17    23   1
    25    18    19  ar
    26    19    20  ar
    27    19    21   1
    28    21    25   2
    29    21    26   2
    30    27    28  ar
    31    28    29  ar
    32    29    30  ar
    33    30    31  ar
    34     1    32   1
    35     2    33   1
    36     3    34   1
    37     5    35   1
    38     6    36   1
    39     8    37   1
    40     9    38   1
    41    10    39   1
    42    12    40   1
    43    12    41   1
    44    13    42   1
    45    18    43   1
    46    20    44   1
    47    22    45   1
    48    23    46   1
    49    27    47   1
    50    28    48   1
    51    30    49   1
    52    31    50   1
@<TRIPOS>SUBSTRUCTURE
     1  MOL      1

