@<TRIPOS>MOLECULE
3oe5_ligand_066
    50    52
SMALL
GAST_HUCK
****
This file was generated by PARSER (from files_GN.cpp)

@<TRIPOS>ATOM
      1 C1         21.6541  -30.4772    6.0595 C.3         1 MOL       0.1170
      2 C2         22.3007  -31.7154    6.7029 C.3         1 MOL       0.1229
      3 C3         23.4263  -32.0943    5.7202 C.3         1 MOL       0.1499
      4 O4         23.8841  -30.8515    5.1738 O.3         1 MOL      -0.3460
      5 C5         22.7733  -29.9383    5.1211 C.3         1 MOL       0.1063
      6 C6         23.2421  -28.5990    5.4449 C.2         1 MOL      -0.0658
      7 S7         24.7435  -32.9880    6.5937 S.3         1 MOL      -0.0558
      8 O8         20.4606  -30.7909    5.3323 O.3         1 MOL      -0.3847
      9 O9         21.3940  -32.7916    6.9465 O.3         1 MOL      -0.3853
     10 C10        23.9503  -28.3110    6.5575 C.2         1 MOL      -0.0744
     11 C11        26.0494  -32.7727    5.4630 C.ar        1 MOL       0.0383
     12 C12        24.3418  -26.9616    6.9347 C.3         1 MOL       0.0473
     13 N13        23.9536  -26.5935    8.2687 N.am        1 MOL      -0.2765
     14 C14        22.7364  -26.6099    8.7924 C.2         1 MOL       0.2411
     15 C15        22.4983  -26.1875   10.1015 C.ar        1 MOL       0.2482
     16 C16        21.6147  -26.9009   10.9536 C.ar        1 MOL       0.3921
     17 C17        21.3007  -26.4040   12.2340 C.ar        1 MOL       0.3797
     18 C18        21.8661  -25.2030   12.6849 C.ar        1 MOL       0.1691
     19 C19        22.7543  -24.4605   11.8700 C.ar        1 MOL       0.2168
     20 C20        23.0736  -24.9875   10.5900 C.ar        1 MOL       0.1162
     21 N21        23.2369  -23.2543   12.2982 N.2         1 MOL      -0.1404
     22 O22        21.0551  -28.0766   10.5646 O.3         1 MOL      -0.1763
     23 O23        20.4342  -27.0591   13.0488 O.3         1 MOL      -0.1825
     24 O24        21.7901  -26.9875    8.1150 O.2         1 MOL      -0.3823
     25 O25        22.8859  -22.7164   13.4368 O.2         1 MOL      -0.4541
     26 O26        23.9947  -22.5895   11.6487 O.2         1 MOL      -0.4541
     27 C27        26.3319  -33.7630    4.5022 C.ar        1 MOL      -0.0217
     28 C28        27.4126  -33.5725    3.6208 C.ar        1 MOL       0.0039
     29 N29        28.1653  -32.4432    3.7088 N.ar        1 MOL      -0.3066
     30 C30        27.9287  -31.4772    4.6294 C.ar        1 MOL       0.0039
     31 C31        26.8680  -31.6251    5.5441 C.ar        1 MOL      -0.0217
     32 H1         21.3680  -29.7601    6.8347 H           1 MOL       0.0667
     33 H2         22.7208  -31.4154    7.6670 H           1 MOL       0.0659
     34 H3         23.0307  -32.7238    4.9144 H           1 MOL       0.0771
     35 H4         22.3948  -29.9221    4.0916 H           1 MOL       0.0748
     36 H5         23.0291  -27.8636    4.8083 H           1 MOL       0.0477
     37 H6         20.7422  -31.3637    4.5896 H           1 MOL       0.2102
     38 H7         21.0599  -33.0606    6.0662 H           1 MOL       0.2101
     39 H8         24.1956  -29.0497    7.1766 H           1 MOL       0.0470
     40 H9         23.9496  -26.2076    6.2474 H           1 MOL       0.0643
     41 H10        25.4321  -26.9082    6.8832 H           1 MOL       0.0643
     42 H11        24.6644  -26.3027    8.8544 H           1 MOL       0.1867
     43 H12        21.6070  -24.8674   13.6165 H           1 MOL       0.1086
     44 H13        23.6896  -24.4458    9.9726 H           1 MOL       0.1563
     45 H14        20.2190  -27.8053   10.1301 H           1 MOL       0.3540
     46 H15        19.7202  -27.3903   12.4628 H           1 MOL       0.3497
     47 H16        25.7720  -34.6171    4.4432 H           1 MOL       0.0660
     48 H17        27.6363  -34.2774    2.9163 H           1 MOL       0.0803
     49 H18        28.5233  -30.6477    4.6558 H           1 MOL       0.0803
     50 H19        26.7037  -30.9077    6.2542 H           1 MOL       0.0660
@<TRIPOS>BOND
     1     1     2   1
     2     1     5   1
     3     1     8   1
     4     2     3   1
     5     2     9   1
     6     3     4   1
     7     3     7   1
     8     4     5   1
     9     5     6   1
    10     6    10   2
    11     7    11   1
    12    10    12   1
    13    11    27  ar
    14    11    31  ar
    15    12    13   1
    16    13    14  am
    17    14    15   1
    18    14    24   2
    19    15    16  ar
    20    15    20  ar
    21    16    17  ar
    22    16    22   1
    23    17    18  ar
    24    17    23   1
    25    18    19  ar
    26    19    20  ar
    27    19    21   1
    28    21    25   2
    29    21    26   2
    30    27    28  ar
    31    28    29  ar
    32    29    30  ar
    33    30    31  ar
    34     1    32   1
    35     2    33   1
    36     3    34   1
    37     5    35   1
    38     6    36   1
    39     8    37   1
    40     9    38   1
    41    10    39   1
    42    12    40   1
    43    12    41   1
    44    13    42   1
    45    18    43   1
    46    20    44   1
    47    22    45   1
    48    23    46   1
    49    27    47   1
    50    28    48   1
    51    30    49   1
    52    31    50   1
@<TRIPOS>SUBSTRUCTURE
     1  MOL      1

