@<TRIPOS>MOLECULE
3oe5_ligand_063
    50    52
SMALL
GAST_HUCK
****
This file was generated by PARSER (from files_GN.cpp)

@<TRIPOS>ATOM
      1 C1         21.2141  -34.9621   12.4781 C.3         1 MOL       0.1170
      2 C2         21.9905  -34.9752   13.8117 C.3         1 MOL       0.1229
      3 C3         23.4509  -34.7042   13.3609 C.3         1 MOL       0.1499
      4 O4         23.4177  -34.3919   11.9522 O.3         1 MOL      -0.3460
      5 C5         22.0728  -34.0034   11.6042 C.3         1 MOL       0.1063
      6 C6         21.9156  -32.5684   11.8120 C.2         1 MOL      -0.0658
      7 S7         24.2049  -33.3689   14.3345 S.3         1 MOL      -0.0558
      8 O8         21.1819  -36.2859   11.9127 O.3         1 MOL      -0.3847
      9 O9         21.8587  -36.2097   14.5316 O.3         1 MOL      -0.3853
     10 C10        20.7356  -31.9377   11.9840 C.2         1 MOL      -0.0744
     11 C11        25.6775  -33.1650   13.4290 C.ar        1 MOL       0.0383
     12 C12        20.6506  -30.5032   12.2103 C.3         1 MOL       0.0473
     13 N13        21.2801  -29.7545   11.1602 N.am        1 MOL      -0.2765
     14 C14        20.6896  -29.3215   10.0540 C.2         1 MOL       0.2411
     15 C15        21.4560  -28.8547    9.0009 C.ar        1 MOL       0.2482
     16 C16        22.2336  -27.6655    9.0837 C.ar        1 MOL       0.3921
     17 C17        23.0217  -27.2620    7.9891 C.ar        1 MOL       0.3797
     18 C18        23.0783  -28.0508    6.8256 C.ar        1 MOL       0.1691
     19 C19        22.3458  -29.2628    6.7236 C.ar        1 MOL       0.2168
     20 C20        21.5339  -29.6372    7.8264 C.ar        1 MOL       0.1162
     21 N21        22.4108  -30.0420    5.6050 N.2         1 MOL      -0.1404
     22 O22        22.2270  -26.8540   10.1809 O.3         1 MOL      -0.1763
     23 O23        23.7113  -26.1027    8.0142 O.3         1 MOL      -0.1825
     24 O24        19.4784  -29.4663    9.8914 O.2         1 MOL      -0.3823
     25 O25        23.1573  -29.7232    4.5781 O.2         1 MOL      -0.4541
     26 O26        21.7839  -31.0632    5.4834 O.2         1 MOL      -0.4541
     27 C27        26.7755  -34.0214   13.6376 C.ar        1 MOL      -0.0217
     28 C28        27.9579  -33.8083   12.9059 C.ar        1 MOL       0.0039
     29 N29        28.0322  -32.7857   12.0181 N.ar        1 MOL      -0.3066
     30 C30        26.9937  -31.9352   11.7942 C.ar        1 MOL       0.0039
     31 C31        25.7897  -32.1030   12.5067 C.ar        1 MOL      -0.0217
     32 H1         20.1860  -34.5988   12.6166 H           1 MOL       0.0667
     33 H2         21.6084  -34.1656   14.4433 H           1 MOL       0.0659
     34 H3         24.0600  -35.6015   13.4851 H           1 MOL       0.0771
     35 H4         21.8988  -34.2092   10.5429 H           1 MOL       0.0748
     36 H5         22.7417  -32.0054   11.7903 H           1 MOL       0.0477
     37 H6         20.7943  -36.1722   11.0193 H           1 MOL       0.2102
     38 H7         20.8944  -36.3540   14.6186 H           1 MOL       0.2101
     39 H8         19.8821  -32.4553   11.9796 H           1 MOL       0.0470
     40 H9         21.1496  -30.2494   13.1472 H           1 MOL       0.0643
     41 H10        19.6036  -30.1978   12.3144 H           1 MOL       0.0643
     42 H11        22.2461  -29.6879   11.1842 H           1 MOL       0.1867
     43 H12        23.6620  -27.7351    6.0549 H           1 MOL       0.1086
     44 H13        21.0206  -30.5231    7.7870 H           1 MOL       0.1563
     45 H14        22.4805  -27.4186   10.9405 H           1 MOL       0.3540
     46 H15        24.3387  -26.1912    8.7694 H           1 MOL       0.3497
     47 H16        26.7281  -34.7849   14.3231 H           1 MOL       0.0660
     48 H17        28.7684  -34.4191   13.0411 H           1 MOL       0.0803
     49 H18        27.0930  -31.1751   11.1215 H           1 MOL       0.0803
     50 H19        25.0189  -31.4468   12.3585 H           1 MOL       0.0660
@<TRIPOS>BOND
     1     1     2   1
     2     1     5   1
     3     1     8   1
     4     2     3   1
     5     2     9   1
     6     3     4   1
     7     3     7   1
     8     4     5   1
     9     5     6   1
    10     6    10   2
    11     7    11   1
    12    10    12   1
    13    11    27  ar
    14    11    31  ar
    15    12    13   1
    16    13    14  am
    17    14    15   1
    18    14    24   2
    19    15    16  ar
    20    15    20  ar
    21    16    17  ar
    22    16    22   1
    23    17    18  ar
    24    17    23   1
    25    18    19  ar
    26    19    20  ar
    27    19    21   1
    28    21    25   2
    29    21    26   2
    30    27    28  ar
    31    28    29  ar
    32    29    30  ar
    33    30    31  ar
    34     1    32   1
    35     2    33   1
    36     3    34   1
    37     5    35   1
    38     6    36   1
    39     8    37   1
    40     9    38   1
    41    10    39   1
    42    12    40   1
    43    12    41   1
    44    13    42   1
    45    18    43   1
    46    20    44   1
    47    22    45   1
    48    23    46   1
    49    27    47   1
    50    28    48   1
    51    30    49   1
    52    31    50   1
@<TRIPOS>SUBSTRUCTURE
     1  MOL      1

