@<TRIPOS>MOLECULE
3oe5_ligand_028
    50    52
SMALL
GAST_HUCK
****
This file was generated by PARSER (from files_GN.cpp)

@<TRIPOS>ATOM
      1 C1         27.4477  -30.0659    1.8548 C.3         1 MOL       0.1170
      2 C2         27.1932  -31.3032    2.7390 C.3         1 MOL       0.1229
      3 C3         28.5678  -31.5070    3.4168 C.3         1 MOL       0.1499
      4 O4         29.1269  -30.1987    3.5800 O.3         1 MOL      -0.3460
      5 C5         28.5249  -29.2806    2.6582 C.3         1 MOL       0.1063
      6 C6         28.1005  -28.1186    3.4343 C.2         1 MOL      -0.0658
      7 S7         28.4670  -32.2932    5.0478 S.3         1 MOL      -0.0558
      8 O8         27.9594  -30.4640    0.5779 O.3         1 MOL      -0.3847
      9 O9         26.7614  -32.4526    2.0033 O.3         1 MOL      -0.3853
     10 C10        26.9418  -28.0472    4.1131 C.2         1 MOL      -0.0744
     11 C11        30.1615  -32.4607    5.4539 C.ar        1 MOL       0.0383
     12 C12        26.5821  -26.9326    4.9762 C.3         1 MOL       0.0473
     13 N13        25.5077  -27.2426    5.8758 N.am        1 MOL      -0.2765
     14 C14        24.2479  -27.5105    5.5558 C.2         1 MOL       0.2411
     15 C15        23.3583  -27.9306    6.5425 C.ar        1 MOL       0.2482
     16 C16        23.1882  -27.2128    7.7531 C.ar        1 MOL       0.3921
     17 C17        22.2519  -27.6444    8.7096 C.ar        1 MOL       0.3797
     18 C18        21.5017  -28.8145    8.4877 C.ar        1 MOL       0.1691
     19 C19        21.6618  -29.5749    7.3048 C.ar        1 MOL       0.2168
     20 C20        22.5931  -29.1063    6.3451 C.ar        1 MOL       0.1162
     21 N21        20.9440  -30.7176    7.0974 N.2         1 MOL      -0.1404
     22 O22        23.8274  -26.0349    7.9668 O.3         1 MOL      -0.1763
     23 O23        22.0507  -26.9125    9.8354 O.3         1 MOL      -0.1825
     24 O24        23.8854  -27.4848    4.3852 O.2         1 MOL      -0.3823
     25 O25        20.0803  -31.1699    7.9649 O.2         1 MOL      -0.4541
     26 O26        21.0586  -31.3872    6.1044 O.2         1 MOL      -0.4541
     27 C27        31.0469  -31.3597    5.5298 C.ar        1 MOL      -0.0217
     28 C28        32.3981  -31.5752    5.8647 C.ar        1 MOL       0.0039
     29 N29        32.8259  -32.8266    6.1701 N.ar        1 MOL      -0.3066
     30 C30        31.9977  -33.9000    6.1612 C.ar        1 MOL       0.0039
     31 C31        30.6475  -33.7400    5.7980 C.ar        1 MOL      -0.0217
     32 H1         26.5334  -29.4874    1.6970 H           1 MOL       0.0667
     33 H2         26.4247  -31.0687    3.4783 H           1 MOL       0.0659
     34 H3         29.2151  -32.0980    2.7563 H           1 MOL       0.0771
     35 H4         29.3133  -28.9578    1.9736 H           1 MOL       0.0748
     36 H5         28.7515  -27.3751    3.5476 H           1 MOL       0.0477
     37 H6         28.0474  -29.6337    0.0611 H           1 MOL       0.2102
     38 H7         26.6102  -33.1454    2.6820 H           1 MOL       0.2101
     39 H8         26.3035  -28.8035    4.0300 H           1 MOL       0.0470
     40 H9         26.3224  -26.0546    4.3807 H           1 MOL       0.0643
     41 H10        27.4489  -26.6803    5.5878 H           1 MOL       0.0643
     42 H11        25.7423  -27.3104    6.8134 H           1 MOL       0.1867
     43 H12        20.8273  -29.1025    9.1997 H           1 MOL       0.1086
     44 H13        22.7266  -29.6412    5.4823 H           1 MOL       0.1563
     45 H14        24.4134  -26.1956    8.7385 H           1 MOL       0.3540
     46 H15        21.1667  -26.5043    9.7270 H           1 MOL       0.3497
     47 H16        30.7178  -30.4073    5.3664 H           1 MOL       0.0660
     48 H17        33.0586  -30.7957    5.8971 H           1 MOL       0.0803
     49 H18        32.3575  -34.8182    6.4277 H           1 MOL       0.0803
     50 H19        30.0280  -34.5527    5.7995 H           1 MOL       0.0660
@<TRIPOS>BOND
     1     1     2   1
     2     1     5   1
     3     1     8   1
     4     2     3   1
     5     2     9   1
     6     3     4   1
     7     3     7   1
     8     4     5   1
     9     5     6   1
    10     6    10   2
    11     7    11   1
    12    10    12   1
    13    11    27  ar
    14    11    31  ar
    15    12    13   1
    16    13    14  am
    17    14    15   1
    18    14    24   2
    19    15    16  ar
    20    15    20  ar
    21    16    17  ar
    22    16    22   1
    23    17    18  ar
    24    17    23   1
    25    18    19  ar
    26    19    20  ar
    27    19    21   1
    28    21    25   2
    29    21    26   2
    30    27    28  ar
    31    28    29  ar
    32    29    30  ar
    33    30    31  ar
    34     1    32   1
    35     2    33   1
    36     3    34   1
    37     5    35   1
    38     6    36   1
    39     8    37   1
    40     9    38   1
    41    10    39   1
    42    12    40   1
    43    12    41   1
    44    13    42   1
    45    18    43   1
    46    20    44   1
    47    22    45   1
    48    23    46   1
    49    27    47   1
    50    28    48   1
    51    30    49   1
    52    31    50   1
@<TRIPOS>SUBSTRUCTURE
     1  MOL      1

