@<TRIPOS>MOLECULE
3oe5_ligand_019
    50    52
SMALL
GAST_HUCK
****
This file was generated by PARSER (from files_GN.cpp)

@<TRIPOS>ATOM
      1 C1         19.2183  -31.2783   12.7715 C.3         1 MOL       0.1170
      2 C2         17.8090  -31.7772   12.4099 C.3         1 MOL       0.1229
      3 C3         16.9406  -30.5419   12.6723 C.3         1 MOL       0.1499
      4 O4         17.7448  -29.4413   12.2287 O.3         1 MOL      -0.3460
      5 C5         19.1108  -29.7376   12.5745 C.3         1 MOL       0.1063
      6 C6         20.0213  -29.1828   11.5760 C.2         1 MOL      -0.0658
      7 S7         15.4180  -30.6160   11.6930 S.3         1 MOL      -0.0558
      8 O8         19.5989  -31.6163   14.1093 O.3         1 MOL      -0.3847
      9 O9         17.3847  -32.9255   13.1439 O.3         1 MOL      -0.3853
     10 C10        19.9853  -29.5071   10.2694 C.2         1 MOL      -0.0744
     11 C11        14.3564  -29.8698   12.8497 C.ar        1 MOL       0.0383
     12 C12        20.8518  -28.9791    9.2216 C.3         1 MOL       0.0473
     13 N13        21.4484  -27.7144    9.5332 N.am        1 MOL      -0.2765
     14 C14        22.6612  -27.2746    9.2457 C.2         1 MOL       0.2411
     15 C15        23.0465  -26.0272    9.7378 C.ar        1 MOL       0.2482
     16 C16        23.7900  -25.1125    8.9504 C.ar        1 MOL       0.3921
     17 C17        24.0428  -23.8095    9.4151 C.ar        1 MOL       0.3797
     18 C18        23.6572  -23.4342   10.7126 C.ar        1 MOL       0.1691
     19 C19        22.9809  -24.3346   11.5674 C.ar        1 MOL       0.2168
     20 C20        22.6678  -25.6199   11.0462 C.ar        1 MOL       0.1162
     21 N21        22.6287  -23.9522   12.8318 N.2         1 MOL      -0.1404
     22 O22        24.1831  -25.4072    7.6870 O.3         1 MOL      -0.1763
     23 O23        24.5919  -22.8894    8.5879 O.3         1 MOL      -0.1825
     24 O24        23.3906  -27.9054    8.4932 O.2         1 MOL      -0.3823
     25 O25        22.9404  -22.7817   13.3288 O.2         1 MOL      -0.4541
     26 O26        22.0449  -24.6896   13.5818 O.2         1 MOL      -0.4541
     27 C27        13.6786  -30.6770   13.7850 C.ar        1 MOL      -0.0217
     28 C28        12.8187  -30.0654   14.7124 C.ar        1 MOL       0.0039
     29 N29        12.6324  -28.7213   14.6809 N.ar        1 MOL      -0.3066
     30 C30        13.2667  -27.9176   13.7878 C.ar        1 MOL       0.0039
     31 C31        14.1585  -28.4747   12.8550 C.ar        1 MOL      -0.0217
     32 H1         19.9466  -31.7428   12.1001 H           1 MOL       0.0667
     33 H2         17.7907  -32.0213   11.3440 H           1 MOL       0.0659
     34 H3         16.7329  -30.4481   13.7468 H           1 MOL       0.0771
     35 H4         19.3023  -29.2399   13.5314 H           1 MOL       0.0748
     36 H5         20.7109  -28.5352   11.8889 H           1 MOL       0.0477
     37 H6         19.0117  -31.1033   14.7091 H           1 MOL       0.2102
     38 H7         16.5020  -33.1520   12.7795 H           1 MOL       0.2101
     39 H8         19.3269  -30.1950    9.9843 H           1 MOL       0.0470
     40 H9         20.2340  -28.8176    8.3333 H           1 MOL       0.0643
     41 H10        21.6022  -29.7303    8.9756 H           1 MOL       0.0643
     42 H11        20.8599  -27.0701    9.9554 H           1 MOL       0.1867
     43 H12        23.8399  -22.4782   11.0165 H           1 MOL       0.1086
     44 H13        22.1545  -26.2764   11.6412 H           1 MOL       0.1563
     45 H14        25.1646  -25.4359    7.7029 H           1 MOL       0.3540
     46 H15        24.0258  -22.8874    7.7892 H           1 MOL       0.3497
     47 H16        13.8056  -31.6933   13.7990 H           1 MOL       0.0660
     48 H17        12.3152  -30.6310   15.3927 H           1 MOL       0.0803
     49 H18        13.0949  -26.9108   13.8002 H           1 MOL       0.0803
     50 H19        14.6514  -27.8657   12.1991 H           1 MOL       0.0660
@<TRIPOS>BOND
     1     1     2   1
     2     1     5   1
     3     1     8   1
     4     2     3   1
     5     2     9   1
     6     3     4   1
     7     3     7   1
     8     4     5   1
     9     5     6   1
    10     6    10   2
    11     7    11   1
    12    10    12   1
    13    11    27  ar
    14    11    31  ar
    15    12    13   1
    16    13    14  am
    17    14    15   1
    18    14    24   2
    19    15    16  ar
    20    15    20  ar
    21    16    17  ar
    22    16    22   1
    23    17    18  ar
    24    17    23   1
    25    18    19  ar
    26    19    20  ar
    27    19    21   1
    28    21    25   2
    29    21    26   2
    30    27    28  ar
    31    28    29  ar
    32    29    30  ar
    33    30    31  ar
    34     1    32   1
    35     2    33   1
    36     3    34   1
    37     5    35   1
    38     6    36   1
    39     8    37   1
    40     9    38   1
    41    10    39   1
    42    12    40   1
    43    12    41   1
    44    13    42   1
    45    18    43   1
    46    20    44   1
    47    22    45   1
    48    23    46   1
    49    27    47   1
    50    28    48   1
    51    30    49   1
    52    31    50   1
@<TRIPOS>SUBSTRUCTURE
     1  MOL      1

