@<TRIPOS>MOLECULE
3oe5_ligand_082
    50    52
SMALL
GAST_HUCK
****
This file was generated by PARSER (from files_GN.cpp)

@<TRIPOS>ATOM
      1 C1         21.9068  -32.6166   13.2620 C.3         1 MOL       0.1170
      2 C2         22.3261  -33.9933   13.8196 C.3         1 MOL       0.1229
      3 C3         21.3331  -34.9787   13.1472 C.3         1 MOL       0.1499
      4 O4         20.6080  -34.2194   12.1701 O.3         1 MOL      -0.3460
      5 C5         20.4877  -32.8990   12.7207 C.3         1 MOL       0.1063
      6 C6         20.0465  -31.9875   11.6822 C.2         1 MOL      -0.0658
      7 S7         22.0683  -36.4111   12.3241 S.3         1 MOL      -0.0558
      8 O8         21.9465  -31.5472   14.2062 O.3         1 MOL      -0.3847
      9 O9         22.1941  -34.0830   15.2395 O.3         1 MOL      -0.3853
     10 C10        18.8992  -31.2765   11.7462 C.2         1 MOL      -0.0744
     11 C11        23.0442  -37.0539   13.6206 C.ar        1 MOL       0.0383
     12 C12        18.4889  -30.3837   10.6875 C.3         1 MOL       0.0473
     13 N13        19.3279  -29.2241   10.7072 N.am        1 MOL      -0.2765
     14 C14        20.3089  -28.9150    9.8677 C.2         1 MOL       0.2411
     15 C15        21.1414  -27.7982   10.0645 C.ar        1 MOL       0.2482
     16 C16        22.0448  -27.3463    9.0629 C.ar        1 MOL       0.3921
     17 C17        22.8685  -26.2268    9.2751 C.ar        1 MOL       0.3797
     18 C18        22.8088  -25.5257   10.4905 C.ar        1 MOL       0.1691
     19 C19        21.9150  -25.9144   11.5132 C.ar        1 MOL       0.2168
     20 C20        21.1086  -27.0569   11.2810 C.ar        1 MOL       0.1162
     21 N21        21.8325  -25.1918   12.6698 N.2         1 MOL      -0.1404
     22 O22        22.1356  -27.9264    7.8401 O.3         1 MOL      -0.1763
     23 O23        23.6990  -25.7922    8.2940 O.3         1 MOL      -0.1825
     24 O24        20.5098  -29.6702    8.9218 O.2         1 MOL      -0.3823
     25 O25        22.5769  -24.1436   12.8993 O.2         1 MOL      -0.4541
     26 O26        21.0554  -25.4673   13.5461 O.2         1 MOL      -0.4541
     27 C27        22.5400  -37.2362   14.9300 C.ar        1 MOL      -0.0217
     28 C28        23.3937  -37.7294   15.9329 C.ar        1 MOL       0.0039
     29 N29        24.6786  -38.0452   15.6342 N.ar        1 MOL      -0.3066
     30 C30        25.1909  -37.9076   14.3848 C.ar        1 MOL       0.0039
     31 C31        24.3818  -37.4147   13.3450 C.ar        1 MOL      -0.0217
     32 H1         22.5790  -32.3561   12.4368 H           1 MOL       0.0667
     33 H2         23.3639  -34.1943   13.5514 H           1 MOL       0.0659
     34 H3         20.5979  -35.3449   13.8678 H           1 MOL       0.0771
     35 H4         19.7710  -32.9236   13.5542 H           1 MOL       0.0748
     36 H5         20.6017  -31.9244   10.8583 H           1 MOL       0.0477
     37 H6         21.2527  -31.7528   14.8696 H           1 MOL       0.2102
     38 H7         22.6146  -33.2754   15.6082 H           1 MOL       0.2101
     39 H8         18.3117  -31.3676   12.5416 H           1 MOL       0.0470
     40 H9         17.4631  -30.0569   10.8567 H           1 MOL       0.0643
     41 H10        18.5018  -30.9119    9.7315 H           1 MOL       0.0643
     42 H11        19.1850  -28.6357   11.4609 H           1 MOL       0.1867
     43 H12        23.4100  -24.7079   10.6092 H           1 MOL       0.1086
     44 H13        20.4789  -27.3492   12.0321 H           1 MOL       0.1563
     45 H14        22.7218  -28.7025    7.9755 H           1 MOL       0.3540
     46 H15        24.5948  -25.9574    8.6531 H           1 MOL       0.3497
     47 H16        21.5687  -37.0147   15.1581 H           1 MOL       0.0660
     48 H17        23.0499  -37.8573   16.8865 H           1 MOL       0.0803
     49 H18        26.1623  -38.1687   14.2030 H           1 MOL       0.0803
     50 H19        24.7700  -37.3177   12.4041 H           1 MOL       0.0660
@<TRIPOS>BOND
     1     1     2   1
     2     1     5   1
     3     1     8   1
     4     2     3   1
     5     2     9   1
     6     3     4   1
     7     3     7   1
     8     4     5   1
     9     5     6   1
    10     6    10   2
    11     7    11   1
    12    10    12   1
    13    11    27  ar
    14    11    31  ar
    15    12    13   1
    16    13    14  am
    17    14    15   1
    18    14    24   2
    19    15    16  ar
    20    15    20  ar
    21    16    17  ar
    22    16    22   1
    23    17    18  ar
    24    17    23   1
    25    18    19  ar
    26    19    20  ar
    27    19    21   1
    28    21    25   2
    29    21    26   2
    30    27    28  ar
    31    28    29  ar
    32    29    30  ar
    33    30    31  ar
    34     1    32   1
    35     2    33   1
    36     3    34   1
    37     5    35   1
    38     6    36   1
    39     8    37   1
    40     9    38   1
    41    10    39   1
    42    12    40   1
    43    12    41   1
    44    13    42   1
    45    18    43   1
    46    20    44   1
    47    22    45   1
    48    23    46   1
    49    27    47   1
    50    28    48   1
    51    30    49   1
    52    31    50   1
@<TRIPOS>SUBSTRUCTURE
     1  MOL      1

