@<TRIPOS>MOLECULE
3oe5_ligand_079
    50    52
SMALL
GAST_HUCK
****
This file was generated by PARSER (from files_GN.cpp)

@<TRIPOS>ATOM
      1 C1         19.4419  -30.6002   10.7922 C.3         1 MOL       0.1170
      2 C2         18.3429  -31.2882   11.6215 C.3         1 MOL       0.1229
      3 C3         18.1716  -30.2951   12.7903 C.3         1 MOL       0.1499
      4 O4         19.4670  -29.7244   13.0363 O.3         1 MOL      -0.3460
      5 C5         20.3059  -29.8982   11.8798 C.3         1 MOL       0.1063
      6 C6         20.8638  -28.6267   11.4407 C.2         1 MOL      -0.0658
      7 S7         17.0661  -28.9032   12.4261 S.3         1 MOL      -0.0558
      8 O8         20.2102  -31.5087    9.9978 O.3         1 MOL      -0.3847
      9 O9         18.7503  -32.5646   12.1119 O.3         1 MOL      -0.3853
     10 C10        21.6961  -28.5467   10.3767 C.2         1 MOL      -0.0744
     11 C11        15.5464  -29.5869   12.9218 C.ar        1 MOL       0.0383
     12 C12        22.1941  -27.2883    9.8448 C.3         1 MOL       0.0473
     13 N13        23.1983  -27.4226    8.8267 N.am        1 MOL      -0.2765
     14 C14        23.1051  -28.1253    7.7059 C.2         1 MOL       0.2411
     15 C15        24.2006  -28.2362    6.8658 C.ar        1 MOL       0.2482
     16 C16        24.8654  -27.0888    6.3691 C.ar        1 MOL       0.3921
     17 C17        25.9516  -27.2442    5.4843 C.ar        1 MOL       0.3797
     18 C18        26.3972  -28.5244    5.1223 C.ar        1 MOL       0.1691
     19 C19        25.7659  -29.6935    5.6063 C.ar        1 MOL       0.2168
     20 C20        24.6483  -29.5206    6.4633 C.ar        1 MOL       0.1162
     21 N21        26.2296  -30.9298    5.2774 N.2         1 MOL      -0.1404
     22 O22        24.4436  -25.8406    6.7103 O.3         1 MOL      -0.1763
     23 O23        26.5704  -26.1657    4.9479 O.3         1 MOL      -0.1825
     24 O24        22.0844  -28.7547    7.4505 O.2         1 MOL      -0.3823
     25 O25        27.2704  -31.1015    4.5122 O.2         1 MOL      -0.4541
     26 O26        25.7345  -31.9436    5.6943 O.2         1 MOL      -0.4541
     27 C27        15.0942  -29.3828   14.2411 C.ar        1 MOL      -0.0217
     28 C28        13.8178  -29.8519   14.6131 C.ar        1 MOL       0.0039
     29 N29        13.0395  -30.4884   13.6976 N.ar        1 MOL      -0.3066
     30 C30        13.4445  -30.6974   12.4184 C.ar        1 MOL       0.0039
     31 C31        14.7100  -30.2508   11.9999 C.ar        1 MOL      -0.0217
     32 H1         18.9638  -29.8597   10.1307 H           1 MOL       0.0667
     33 H2         17.4237  -31.4184   11.0470 H           1 MOL       0.0659
     34 H3         17.8481  -30.7864   13.7121 H           1 MOL       0.0771
     35 H4         21.1204  -30.5735   12.1733 H           1 MOL       0.0748
     36 H5         20.6235  -27.7917   11.9536 H           1 MOL       0.0477
     37 H6         19.8908  -31.3811    9.0753 H           1 MOL       0.2102
     38 H7         19.5691  -32.4048   12.6270 H           1 MOL       0.2101
     39 H8         21.9462  -29.3849    9.8776 H           1 MOL       0.0470
     40 H9         22.6382  -26.7025   10.6559 H           1 MOL       0.0643
     41 H10        21.3573  -26.7111    9.4391 H           1 MOL       0.0643
     42 H11        24.0376  -26.9672    8.9971 H           1 MOL       0.1867
     43 H12        27.1958  -28.5956    4.4861 H           1 MOL       0.1086
     44 H13        24.1599  -30.3462    6.8281 H           1 MOL       0.1563
     45 H14        25.2194  -25.2612    6.5774 H           1 MOL       0.3540
     46 H15        26.0338  -25.9370    4.1596 H           1 MOL       0.3497
     47 H16        15.6739  -28.8895   14.9238 H           1 MOL       0.0660
     48 H17        13.4727  -29.7137   15.5658 H           1 MOL       0.0803
     49 H18        12.8200  -31.1754   11.7644 H           1 MOL       0.0803
     50 H19        15.0011  -30.3951   11.0310 H           1 MOL       0.0660
@<TRIPOS>BOND
     1     1     2   1
     2     1     5   1
     3     1     8   1
     4     2     3   1
     5     2     9   1
     6     3     4   1
     7     3     7   1
     8     4     5   1
     9     5     6   1
    10     6    10   2
    11     7    11   1
    12    10    12   1
    13    11    27  ar
    14    11    31  ar
    15    12    13   1
    16    13    14  am
    17    14    15   1
    18    14    24   2
    19    15    16  ar
    20    15    20  ar
    21    16    17  ar
    22    16    22   1
    23    17    18  ar
    24    17    23   1
    25    18    19  ar
    26    19    20  ar
    27    19    21   1
    28    21    25   2
    29    21    26   2
    30    27    28  ar
    31    28    29  ar
    32    29    30  ar
    33    30    31  ar
    34     1    32   1
    35     2    33   1
    36     3    34   1
    37     5    35   1
    38     6    36   1
    39     8    37   1
    40     9    38   1
    41    10    39   1
    42    12    40   1
    43    12    41   1
    44    13    42   1
    45    18    43   1
    46    20    44   1
    47    22    45   1
    48    23    46   1
    49    27    47   1
    50    28    48   1
    51    30    49   1
    52    31    50   1
@<TRIPOS>SUBSTRUCTURE
     1  MOL      1

