@<TRIPOS>MOLECULE
3oe5_ligand_050
    50    52
SMALL
GAST_HUCK
****
This file was generated by PARSER (from files_GN.cpp)

@<TRIPOS>ATOM
      1 C1         22.7537  -31.8973   13.0844 C.3         1 MOL       0.1170
      2 C2         21.7571  -33.0308   12.7873 C.3         1 MOL       0.1229
      3 C3         20.8231  -32.9970   14.0077 C.3         1 MOL       0.1499
      4 O4         20.7890  -31.6420   14.4659 O.3         1 MOL      -0.3460
      5 C5         21.9850  -30.9556   14.0570 C.3         1 MOL       0.1063
      6 C6         21.7097  -29.6386   13.4913 C.2         1 MOL      -0.0658
      7 S7         19.1616  -33.6503   13.6659 S.3         1 MOL      -0.0558
      8 O8         23.9600  -32.3798   13.6837 O.3         1 MOL      -0.3847
      9 O9         22.3674  -34.3094   12.5924 O.3         1 MOL      -0.3853
     10 C10        20.5277  -29.0011   13.5343 C.2         1 MOL      -0.0744
     11 C11        18.3339  -32.2024   13.1446 C.ar        1 MOL       0.0383
     12 C12        20.2564  -27.7667   12.8107 C.3         1 MOL       0.0473
     13 N13        20.9220  -27.6243   11.5441 N.am        1 MOL      -0.2765
     14 C14        20.9146  -28.4657   10.5100 C.2         1 MOL       0.2411
     15 C15        21.6332  -28.2584    9.3107 C.ar        1 MOL       0.2482
     16 C16        22.5016  -27.1550    9.0969 C.ar        1 MOL       0.3921
     17 C17        23.2349  -27.0334    7.9000 C.ar        1 MOL       0.3797
     18 C18        23.1183  -28.0017    6.8888 C.ar        1 MOL       0.1691
     19 C19        22.2674  -29.1175    7.0466 C.ar        1 MOL       0.2168
     20 C20        21.5315  -29.2113    8.2554 C.ar        1 MOL       0.1162
     21 N21        22.1656  -30.0550    6.0604 N.2         1 MOL      -0.1404
     22 O22        22.6587  -26.1793   10.0270 O.3         1 MOL      -0.1763
     23 O23        24.0245  -25.9564    7.6992 O.3         1 MOL      -0.1825
     24 O24        20.2895  -29.5094   10.6554 O.2         1 MOL      -0.3823
     25 O25        22.8242  -29.9726    4.9362 O.2         1 MOL      -0.4541
     26 O26        21.4558  -31.0201    6.1592 O.2         1 MOL      -0.4541
     27 C27        18.5123  -31.6769   11.8498 C.ar        1 MOL      -0.0217
     28 C28        17.7968  -30.5294   11.4668 C.ar        1 MOL       0.0039
     29 N29        16.9452  -29.9362   12.3409 N.ar        1 MOL      -0.3066
     30 C30        16.7476  -30.4139   13.5964 C.ar        1 MOL       0.0039
     31 C31        17.4231  -31.5744   14.0178 C.ar        1 MOL      -0.0217
     32 H1         23.0334  -31.4046   12.1483 H           1 MOL       0.0667
     33 H2         21.1963  -32.7818   11.8840 H           1 MOL       0.0659
     34 H3         21.2574  -33.6052   14.8055 H           1 MOL       0.0771
     35 H4         22.5830  -30.7913   14.9547 H           1 MOL       0.0748
     36 H5         22.4579  -29.1974   13.0080 H           1 MOL       0.0477
     37 H6         23.7029  -32.7216   14.5665 H           1 MOL       0.2102
     38 H7         22.8839  -34.4895   13.4076 H           1 MOL       0.2101
     39 H8         19.7716  -29.4119   14.0330 H           1 MOL       0.0470
     40 H9         20.5493  -26.9298   13.4519 H           1 MOL       0.0643
     41 H10        19.1799  -27.6814   12.6389 H           1 MOL       0.0643
     42 H11        21.4267  -26.8104   11.4449 H           1 MOL       0.1867
     43 H12        23.6642  -27.8764    6.0318 H           1 MOL       0.1086
     44 H13        20.9035  -30.0137    8.3667 H           1 MOL       0.1563
     45 H14        23.6251  -26.1191   10.1873 H           1 MOL       0.3540
     46 H15        24.7301  -26.0228    8.3837 H           1 MOL       0.3497
     47 H16        19.1604  -32.1093   11.1909 H           1 MOL       0.0660
     48 H17        17.9300  -30.1330   10.5364 H           1 MOL       0.0803
     49 H18        16.1074  -29.9290   14.2267 H           1 MOL       0.0803
     50 H19        17.2540  -31.9463   14.9539 H           1 MOL       0.0660
@<TRIPOS>BOND
     1     1     2   1
     2     1     5   1
     3     1     8   1
     4     2     3   1
     5     2     9   1
     6     3     4   1
     7     3     7   1
     8     4     5   1
     9     5     6   1
    10     6    10   2
    11     7    11   1
    12    10    12   1
    13    11    27  ar
    14    11    31  ar
    15    12    13   1
    16    13    14  am
    17    14    15   1
    18    14    24   2
    19    15    16  ar
    20    15    20  ar
    21    16    17  ar
    22    16    22   1
    23    17    18  ar
    24    17    23   1
    25    18    19  ar
    26    19    20  ar
    27    19    21   1
    28    21    25   2
    29    21    26   2
    30    27    28  ar
    31    28    29  ar
    32    29    30  ar
    33    30    31  ar
    34     1    32   1
    35     2    33   1
    36     3    34   1
    37     5    35   1
    38     6    36   1
    39     8    37   1
    40     9    38   1
    41    10    39   1
    42    12    40   1
    43    12    41   1
    44    13    42   1
    45    18    43   1
    46    20    44   1
    47    22    45   1
    48    23    46   1
    49    27    47   1
    50    28    48   1
    51    30    49   1
    52    31    50   1
@<TRIPOS>SUBSTRUCTURE
     1  MOL      1

