@<TRIPOS>MOLECULE
3oe5_ligand_022
    50    52
SMALL
GAST_HUCK
****
This file was generated by PARSER (from files_GN.cpp)

@<TRIPOS>ATOM
      1 C1         20.3630  -32.9014   14.4355 C.3         1 MOL       0.1170
      2 C2         21.2028  -34.1185   13.9965 C.3         1 MOL       0.1229
      3 C3         20.9076  -34.2225   12.4928 C.3         1 MOL       0.1499
      4 O4         20.7622  -32.8684   12.0677 O.3         1 MOL      -0.3460
      5 C5         20.0730  -32.1589   13.1058 C.3         1 MOL       0.1063
      6 C6         20.5484  -30.7831   13.0841 C.2         1 MOL      -0.0658
      7 S7         22.2571  -35.0377   11.5986 S.3         1 MOL      -0.0558
      8 O8         19.1433  -33.2785   15.0755 O.3         1 MOL      -0.3847
      9 O9         20.8924  -35.3165   14.7025 O.3         1 MOL      -0.3853
     10 C10        19.7387  -29.7129   13.0542 C.2         1 MOL      -0.0744
     11 C11        21.5717  -34.9255   10.0046 C.ar        1 MOL       0.0383
     12 C12        20.2256  -28.3713   12.7824 C.3         1 MOL       0.0473
     13 N13        21.0123  -28.2722   11.5876 N.am        1 MOL      -0.2765
     14 C14        20.6676  -28.6507   10.3552 C.2         1 MOL       0.2411
     15 C15        21.5090  -28.4519    9.2514 C.ar        1 MOL       0.2482
     16 C16        22.3989  -27.3512    9.1787 C.ar        1 MOL       0.3921
     17 C17        23.1805  -27.1434    8.0234 C.ar        1 MOL       0.3797
     18 C18        23.1220  -28.0525    6.9525 C.ar        1 MOL       0.1691
     19 C19        22.2560  -29.1673    6.9840 C.ar        1 MOL       0.2168
     20 C20        21.4553  -29.3404    8.1422 C.ar        1 MOL       0.1162
     21 N21        22.1788  -30.0192    5.9169 N.2         1 MOL      -0.1404
     22 O22        22.4672  -26.4189   10.1693 O.3         1 MOL      -0.1763
     23 O23        23.9192  -26.0204    7.8757 O.3         1 MOL      -0.1825
     24 O24        19.5931  -29.2191   10.1842 O.2         1 MOL      -0.3823
     25 O25        22.9413  -29.8908    4.8639 O.2         1 MOL      -0.4541
     26 O26        21.3773  -30.9109    5.8500 O.2         1 MOL      -0.4541
     27 C27        21.7195  -33.7433    9.2442 C.ar        1 MOL      -0.0217
     28 C28        21.1310  -33.6818    7.9683 C.ar        1 MOL       0.0039
     29 N29        20.4517  -34.7477    7.4753 N.ar        1 MOL      -0.3066
     30 C30        20.3090  -35.9057    8.1722 C.ar        1 MOL       0.0039
     31 C31        20.8690  -36.0164    9.4561 C.ar        1 MOL      -0.0217
     32 H1         20.9348  -32.2929   15.1435 H           1 MOL       0.0667
     33 H2         22.2603  -33.8907   14.1594 H           1 MOL       0.0659
     34 H3         19.9757  -34.7701   12.3245 H           1 MOL       0.0771
     35 H4         19.0037  -32.2086   12.8724 H           1 MOL       0.0748
     36 H5         21.5316  -30.6392   13.0106 H           1 MOL       0.0477
     37 H6         18.8129  -32.4546   15.4996 H           1 MOL       0.2102
     38 H7         20.9832  -36.0381   14.0407 H           1 MOL       0.2101
     39 H8         18.7562  -29.8363   13.1675 H           1 MOL       0.0470
     40 H9         20.8429  -28.0524   13.6269 H           1 MOL       0.0643
     41 H10        19.3872  -27.6740   12.7017 H           1 MOL       0.0643
     42 H11        21.8919  -27.8754   11.6933 H           1 MOL       0.1867
     43 H12        23.6964  -27.8668    6.1263 H           1 MOL       0.1086
     44 H13        20.8307  -30.1517    8.1814 H           1 MOL       0.1563
     45 H14        23.4261  -26.2047   10.2763 H           1 MOL       0.3540
     46 H15        24.6117  -26.0767    8.5745 H           1 MOL       0.3497
     47 H16        22.2327  -32.9359    9.6026 H           1 MOL       0.0660
     48 H17        21.2113  -32.8339    7.4093 H           1 MOL       0.0803
     49 H18        19.7967  -36.6821    7.7561 H           1 MOL       0.0803
     50 H19        20.7606  -36.8873    9.9823 H           1 MOL       0.0660
@<TRIPOS>BOND
     1     1     2   1
     2     1     5   1
     3     1     8   1
     4     2     3   1
     5     2     9   1
     6     3     4   1
     7     3     7   1
     8     4     5   1
     9     5     6   1
    10     6    10   2
    11     7    11   1
    12    10    12   1
    13    11    27  ar
    14    11    31  ar
    15    12    13   1
    16    13    14  am
    17    14    15   1
    18    14    24   2
    19    15    16  ar
    20    15    20  ar
    21    16    17  ar
    22    16    22   1
    23    17    18  ar
    24    17    23   1
    25    18    19  ar
    26    19    20  ar
    27    19    21   1
    28    21    25   2
    29    21    26   2
    30    27    28  ar
    31    28    29  ar
    32    29    30  ar
    33    30    31  ar
    34     1    32   1
    35     2    33   1
    36     3    34   1
    37     5    35   1
    38     6    36   1
    39     8    37   1
    40     9    38   1
    41    10    39   1
    42    12    40   1
    43    12    41   1
    44    13    42   1
    45    18    43   1
    46    20    44   1
    47    22    45   1
    48    23    46   1
    49    27    47   1
    50    28    48   1
    51    30    49   1
    52    31    50   1
@<TRIPOS>SUBSTRUCTURE
     1  MOL      1

