@<TRIPOS>MOLECULE
3oe5_ligand_035
    50    52
SMALL
GAST_HUCK
****
This file was generated by PARSER (from files_GN.cpp)

@<TRIPOS>ATOM
      1 C1         19.7749  -31.1196   13.3617 C.3         1 MOL       0.1170
      2 C2         19.4443  -32.3923   14.1663 C.3         1 MOL       0.1229
      3 C3         19.5692  -33.5264   13.1185 C.3         1 MOL       0.1499
      4 O4         20.1957  -32.9417   11.9656 O.3         1 MOL      -0.3460
      5 C5         19.7176  -31.5899   11.8957 C.3         1 MOL       0.1063
      6 C6         20.5474  -30.7659   11.0280 C.2         1 MOL      -0.0658
      7 S7         20.5792  -34.9220   13.6913 S.3         1 MOL      -0.0558
      8 O8         18.8873  -30.0278   13.5802 O.3         1 MOL      -0.3847
      9 O9         18.1323  -32.3600   14.7257 O.3         1 MOL      -0.3853
     10 C10        20.0578  -29.8640   10.1566 C.2         1 MOL      -0.0744
     11 C11        19.3561  -36.1633   13.7188 C.ar        1 MOL       0.0383
     12 C12        20.8930  -28.9145    9.4386 C.3         1 MOL       0.0473
     13 N13        20.9717  -27.6113   10.0329 N.am        1 MOL      -0.2765
     14 C14        21.1675  -27.2961   11.3096 C.2         1 MOL       0.2411
     15 C15        21.2444  -25.9616   11.6759 C.ar        1 MOL       0.2482
     16 C16        20.1217  -25.1007   11.6087 C.ar        1 MOL       0.3921
     17 C17        20.2509  -23.7432   11.9588 C.ar        1 MOL       0.3797
     18 C18        21.4786  -23.2658   12.4536 C.ar        1 MOL       0.1691
     19 C19        22.6131  -24.1057   12.5587 C.ar        1 MOL       0.2168
     20 C20        22.4794  -25.4474   12.1283 C.ar        1 MOL       0.1162
     21 N21        23.7853  -23.6310   13.0714 N.2         1 MOL      -0.1404
     22 O22        18.9160  -25.5772   11.2015 O.3         1 MOL      -0.1763
     23 O23        19.1968  -22.8969   11.7957 O.3         1 MOL      -0.1825
     24 O24        21.2688  -28.1510   12.1793 O.2         1 MOL      -0.3823
     25 O25        23.9187  -22.3987   13.4872 O.2         1 MOL      -0.4541
     26 O26        24.7615  -24.3212   13.2054 O.2         1 MOL      -0.4541
     27 C27        18.2416  -36.0727   14.5792 C.ar        1 MOL      -0.0217
     28 C28        17.2441  -37.0624   14.5163 C.ar        1 MOL       0.0039
     29 N29        17.3836  -38.1095   13.6625 N.ar        1 MOL      -0.3066
     30 C30        18.4595  -38.2459   12.8456 C.ar        1 MOL       0.0039
     31 C31        19.4742  -37.2709   12.8545 C.ar        1 MOL      -0.0217
     32 H1         20.7891  -30.7983   13.6203 H           1 MOL       0.0667
     33 H2         20.1622  -32.4995   14.9873 H           1 MOL       0.0659
     34 H3         18.5758  -33.8744   12.8131 H           1 MOL       0.0771
     35 H4         18.6760  -31.5989   11.5376 H           1 MOL       0.0748
     36 H5         21.5278  -30.7804   11.1981 H           1 MOL       0.0477
     37 H6         18.7879  -29.9882   14.5552 H           1 MOL       0.2102
     38 H7         18.1593  -33.0057   15.4625 H           1 MOL       0.2101
     39 H8         19.0735  -29.7897   10.0382 H           1 MOL       0.0470
     40 H9         20.4656  -28.7804    8.4435 H           1 MOL       0.0643
     41 H10        21.9078  -29.2901    9.3051 H           1 MOL       0.0643
     42 H11        20.9559  -26.8611    9.4113 H           1 MOL       0.1867
     43 H12        21.5371  -22.2874   12.7402 H           1 MOL       0.1086
     44 H13        23.2981  -26.0605   12.1345 H           1 MOL       0.1563
     45 H14        18.2312  -24.9268   11.4759 H           1 MOL       0.3540
     46 H15        19.2645  -22.2151   12.5034 H           1 MOL       0.3497
     47 H16        18.1467  -35.3004   15.2398 H           1 MOL       0.0660
     48 H17        16.4141  -36.9995   15.1101 H           1 MOL       0.0803
     49 H18        18.5228  -39.0530   12.2224 H           1 MOL       0.0803
     50 H19        20.2807  -37.3716   12.2336 H           1 MOL       0.0660
@<TRIPOS>BOND
     1     1     2   1
     2     1     5   1
     3     1     8   1
     4     2     3   1
     5     2     9   1
     6     3     4   1
     7     3     7   1
     8     4     5   1
     9     5     6   1
    10     6    10   2
    11     7    11   1
    12    10    12   1
    13    11    27  ar
    14    11    31  ar
    15    12    13   1
    16    13    14  am
    17    14    15   1
    18    14    24   2
    19    15    16  ar
    20    15    20  ar
    21    16    17  ar
    22    16    22   1
    23    17    18  ar
    24    17    23   1
    25    18    19  ar
    26    19    20  ar
    27    19    21   1
    28    21    25   2
    29    21    26   2
    30    27    28  ar
    31    28    29  ar
    32    29    30  ar
    33    30    31  ar
    34     1    32   1
    35     2    33   1
    36     3    34   1
    37     5    35   1
    38     6    36   1
    39     8    37   1
    40     9    38   1
    41    10    39   1
    42    12    40   1
    43    12    41   1
    44    13    42   1
    45    18    43   1
    46    20    44   1
    47    22    45   1
    48    23    46   1
    49    27    47   1
    50    28    48   1
    51    30    49   1
    52    31    50   1
@<TRIPOS>SUBSTRUCTURE
     1  MOL      1

