@<TRIPOS>MOLECULE
3oe5_ligand_074
    50    52
SMALL
GAST_HUCK
****
This file was generated by PARSER (from files_GN.cpp)

@<TRIPOS>ATOM
      1 C1         21.3917  -33.9662    8.3625 C.3         1 MOL       0.1170
      2 C2         22.5343  -34.9991    8.2395 C.3         1 MOL       0.1229
      3 C3         23.7284  -34.3264    8.9685 C.3         1 MOL       0.1499
      4 O4         23.2187  -33.1249    9.5523 O.3         1 MOL      -0.3460
      5 C5         22.1382  -32.6682    8.7391 C.3         1 MOL       0.1063
      6 C6         21.3764  -31.6947    9.5170 C.2         1 MOL      -0.0658
      7 S7         24.4513  -35.3370   10.2921 S.3         1 MOL      -0.0558
      8 O8         20.5981  -33.8166    7.1823 O.3         1 MOL      -0.3847
      9 O9         22.8735  -35.2808    6.8788 O.3         1 MOL      -0.3853
     10 C10        21.3264  -30.3866    9.2205 C.2         1 MOL      -0.0744
     11 C11        25.8125  -34.3219   10.7032 C.ar        1 MOL       0.0383
     12 C12        20.6452  -29.3769   10.0219 C.3         1 MOL       0.0473
     13 N13        21.4807  -28.2619   10.3839 N.am        1 MOL      -0.2765
     14 C14        21.9439  -27.3194    9.5712 C.2         1 MOL       0.2411
     15 C15        22.5758  -26.1536   10.0354 C.ar        1 MOL       0.2482
     16 C16        23.3943  -25.3650    9.1852 C.ar        1 MOL       0.3921
     17 C17        23.8510  -24.0910    9.5770 C.ar        1 MOL       0.3797
     18 C18        23.5718  -23.6239   10.8719 C.ar        1 MOL       0.1691
     19 C19        22.8073  -24.3857   11.7828 C.ar        1 MOL       0.2168
     20 C20        22.3241  -25.6470   11.3421 C.ar        1 MOL       0.1162
     21 N21        22.5212  -23.8982   13.0280 N.2         1 MOL      -0.1404
     22 O22        23.7939  -25.7982    7.9634 O.3         1 MOL      -0.1763
     23 O23        24.5442  -23.3040    8.7149 O.3         1 MOL      -0.1825
     24 O24        21.7175  -27.4220    8.3675 O.2         1 MOL      -0.3823
     25 O25        22.9266  -22.7184   13.4404 O.2         1 MOL      -0.4541
     26 O26        21.8766  -24.5184   13.8273 O.2         1 MOL      -0.4541
     27 C27        25.6484  -33.0967   11.3929 C.ar        1 MOL      -0.0217
     28 C28        26.7774  -32.3135   11.6929 C.ar        1 MOL       0.0039
     29 N29        28.0138  -32.7577   11.3524 N.ar        1 MOL      -0.3066
     30 C30        28.2171  -33.9420   10.7163 C.ar        1 MOL       0.0039
     31 C31        27.1177  -34.7527   10.3791 C.ar        1 MOL      -0.0217
     32 H1         20.7266  -34.2789    9.1725 H           1 MOL       0.0667
     33 H2         22.2410  -35.9427    8.7157 H           1 MOL       0.0659
     34 H3         24.5154  -34.0623    8.2553 H           1 MOL       0.0771
     35 H4         22.5573  -32.2132    7.8288 H           1 MOL       0.0748
     36 H5         20.9364  -32.0156   10.3525 H           1 MOL       0.0477
     37 H6         21.2234  -33.5390    6.4787 H           1 MOL       0.2102
     38 H7         22.0758  -35.7038    6.4926 H           1 MOL       0.2101
     39 H8         21.7592  -30.0811    8.3776 H           1 MOL       0.0470
     40 H9         20.2599  -29.8058   10.9498 H           1 MOL       0.0643
     41 H10        19.7831  -29.0052    9.4573 H           1 MOL       0.0643
     42 H11        21.6651  -28.1495   11.3315 H           1 MOL       0.1867
     43 H12        23.9061  -22.6933   11.1325 H           1 MOL       0.1086
     44 H13        21.7269  -26.1791   11.9786 H           1 MOL       0.1563
     45 H14        24.2842  -26.6318    8.1373 H           1 MOL       0.3540
     46 H15        23.9781  -23.2097    7.9145 H           1 MOL       0.3497
     47 H16        24.7233  -32.7718   11.6785 H           1 MOL       0.0660
     48 H17        26.6740  -31.4221   12.1733 H           1 MOL       0.0803
     49 H18        29.1645  -34.2350   10.4919 H           1 MOL       0.0803
     50 H19        27.2741  -35.6473    9.9078 H           1 MOL       0.0660
@<TRIPOS>BOND
     1     1     2   1
     2     1     5   1
     3     1     8   1
     4     2     3   1
     5     2     9   1
     6     3     4   1
     7     3     7   1
     8     4     5   1
     9     5     6   1
    10     6    10   2
    11     7    11   1
    12    10    12   1
    13    11    27  ar
    14    11    31  ar
    15    12    13   1
    16    13    14  am
    17    14    15   1
    18    14    24   2
    19    15    16  ar
    20    15    20  ar
    21    16    17  ar
    22    16    22   1
    23    17    18  ar
    24    17    23   1
    25    18    19  ar
    26    19    20  ar
    27    19    21   1
    28    21    25   2
    29    21    26   2
    30    27    28  ar
    31    28    29  ar
    32    29    30  ar
    33    30    31  ar
    34     1    32   1
    35     2    33   1
    36     3    34   1
    37     5    35   1
    38     6    36   1
    39     8    37   1
    40     9    38   1
    41    10    39   1
    42    12    40   1
    43    12    41   1
    44    13    42   1
    45    18    43   1
    46    20    44   1
    47    22    45   1
    48    23    46   1
    49    27    47   1
    50    28    48   1
    51    30    49   1
    52    31    50   1
@<TRIPOS>SUBSTRUCTURE
     1  MOL      1

