@<TRIPOS>MOLECULE
3oe5_ligand_007
    50    52
SMALL
GAST_HUCK
****
This file was generated by PARSER (from files_GN.cpp)

@<TRIPOS>ATOM
      1 C1         19.8022  -31.4739   13.6089 C.3         1 MOL       0.1170
      2 C2         19.8774  -32.7000   14.5256 C.3         1 MOL       0.1229
      3 C3         20.6125  -33.7229   13.6366 C.3         1 MOL       0.1499
      4 O4         20.2631  -33.4312   12.2747 O.3         1 MOL      -0.3460
      5 C5         19.7209  -32.1006   12.1962 C.3         1 MOL       0.1063
      6 C6         20.3940  -31.2982   11.1873 C.2         1 MOL      -0.0658
      7 S7         22.4240  -33.5935   13.7739 S.3         1 MOL      -0.0558
      8 O8         18.6776  -30.6318   13.8461 O.3         1 MOL      -0.3847
      9 O9         18.5798  -33.1813   14.8694 O.3         1 MOL      -0.3853
     10 C10        19.9495  -30.0808   10.8174 C.2         1 MOL      -0.0744
     11 C11        22.8198  -35.2527   14.1401 C.ar        1 MOL       0.0383
     12 C12        20.6817  -29.1853    9.9404 C.3         1 MOL       0.0473
     13 N13        20.7404  -27.8458   10.4356 N.am        1 MOL      -0.2765
     14 C14        21.3363  -27.3864   11.5301 C.2         1 MOL       0.2411
     15 C15        21.3554  -26.0197   11.8176 C.ar        1 MOL       0.2482
     16 C16        20.2027  -25.1908   11.6924 C.ar        1 MOL       0.3921
     17 C17        20.2797  -23.8127   11.9768 C.ar        1 MOL       0.3797
     18 C18        21.4892  -23.2599   12.4345 C.ar        1 MOL       0.1691
     19 C19        22.6474  -24.0514   12.5975 C.ar        1 MOL       0.2168
     20 C20        22.5581  -25.4237   12.2699 C.ar        1 MOL       0.1162
     21 N21        23.8077  -23.5015   13.0572 N.2         1 MOL      -0.1404
     22 O22        18.9965  -25.7419   11.3724 O.3         1 MOL      -0.1763
     23 O23        19.1858  -23.0191   11.8054 O.3         1 MOL      -0.1825
     24 O24        21.9532  -28.1639   12.2562 O.2         1 MOL      -0.3823
     25 O25        23.8952  -22.2494   13.3962 O.2         1 MOL      -0.4541
     26 O26        24.8024  -24.1495   13.2402 O.2         1 MOL      -0.4541
     27 C27        22.6566  -36.2738   13.1809 C.ar        1 MOL      -0.0217
     28 C28        22.9877  -37.5979   13.5277 C.ar        1 MOL       0.0039
     29 N29        23.4658  -37.8705   14.7694 N.ar        1 MOL      -0.3066
     30 C30        23.6456  -36.9108   15.7106 C.ar        1 MOL       0.0039
     31 C31        23.3276  -35.5743   15.4174 C.ar        1 MOL      -0.0217
     32 H1         20.7184  -30.8859   13.7332 H           1 MOL       0.0667
     33 H2         20.4203  -32.4883   15.4506 H           1 MOL       0.0659
     34 H3         20.2671  -34.7309   13.8816 H           1 MOL       0.0771
     35 H4         18.6709  -32.2174   11.9075 H           1 MOL       0.0748
     36 H5         21.2453  -31.6460   10.8071 H           1 MOL       0.0477
     37 H6         18.7614  -30.3358   14.7702 H           1 MOL       0.2102
     38 H7         18.2308  -32.5084   15.4858 H           1 MOL       0.2101
     39 H8         19.0779  -29.7623   11.1780 H           1 MOL       0.0470
     40 H9         20.1454  -29.1574    8.9899 H           1 MOL       0.0643
     41 H10        21.6950  -29.5403    9.7326 H           1 MOL       0.0643
     42 H11        20.3488  -27.1817    9.8584 H           1 MOL       0.1867
     43 H12        21.5145  -22.2584   12.6415 H           1 MOL       0.1086
     44 H13        23.3931  -26.0085   12.3460 H           1 MOL       0.1563
     45 H14        18.3392  -25.0156   11.2830 H           1 MOL       0.3540
     46 H15        19.2576  -22.2827   12.4498 H           1 MOL       0.3497
     47 H16        22.2905  -36.0713   12.2462 H           1 MOL       0.0660
     48 H17        22.8697  -38.3556   12.8547 H           1 MOL       0.0803
     49 H18        24.0110  -37.1624   16.6286 H           1 MOL       0.0803
     50 H19        23.4547  -34.8509   16.1280 H           1 MOL       0.0660
@<TRIPOS>BOND
     1     1     2   1
     2     1     5   1
     3     1     8   1
     4     2     3   1
     5     2     9   1
     6     3     4   1
     7     3     7   1
     8     4     5   1
     9     5     6   1
    10     6    10   2
    11     7    11   1
    12    10    12   1
    13    11    27  ar
    14    11    31  ar
    15    12    13   1
    16    13    14  am
    17    14    15   1
    18    14    24   2
    19    15    16  ar
    20    15    20  ar
    21    16    17  ar
    22    16    22   1
    23    17    18  ar
    24    17    23   1
    25    18    19  ar
    26    19    20  ar
    27    19    21   1
    28    21    25   2
    29    21    26   2
    30    27    28  ar
    31    28    29  ar
    32    29    30  ar
    33    30    31  ar
    34     1    32   1
    35     2    33   1
    36     3    34   1
    37     5    35   1
    38     6    36   1
    39     8    37   1
    40     9    38   1
    41    10    39   1
    42    12    40   1
    43    12    41   1
    44    13    42   1
    45    18    43   1
    46    20    44   1
    47    22    45   1
    48    23    46   1
    49    27    47   1
    50    28    48   1
    51    30    49   1
    52    31    50   1
@<TRIPOS>SUBSTRUCTURE
     1  MOL      1

