@<TRIPOS>MOLECULE
3oe5_ligand_043
    50    52
SMALL
GAST_HUCK
****
This file was generated by PARSER (from files_GN.cpp)

@<TRIPOS>ATOM
      1 C1         21.8438  -33.6126   11.5723 C.3         1 MOL       0.1170
      2 C2         22.7560  -33.8234   10.3515 C.3         1 MOL       0.1229
      3 C3         22.0112  -33.0478    9.2545 C.3         1 MOL       0.1499
      4 O4         21.5299  -31.8786    9.9246 O.3         1 MOL      -0.3460
      5 C5         21.1089  -32.2848   11.2359 C.3         1 MOL       0.1063
      6 C6         21.4144  -31.2085   12.1595 C.2         1 MOL      -0.0658
      7 S7         23.0898  -32.6028    7.8680 S.3         1 MOL      -0.0558
      8 O8         20.8972  -34.6721   11.7207 O.3         1 MOL      -0.3847
      9 O9         22.9674  -35.1904   10.0030 O.3         1 MOL      -0.3853
     10 C10        20.4807  -30.4645   12.7812 C.2         1 MOL      -0.0744
     11 C11        21.8560  -32.2313    6.6963 C.ar        1 MOL       0.0383
     12 C12        20.8136  -29.3385   13.6254 C.3         1 MOL       0.0473
     13 N13        21.4652  -28.3348   12.8399 N.am        1 MOL      -0.2765
     14 C14        20.9606  -27.1696   12.4648 C.2         1 MOL       0.2411
     15 C15        21.7838  -26.2840   11.7992 C.ar        1 MOL       0.2482
     16 C16        22.2162  -26.5156   10.4748 C.ar        1 MOL       0.3921
     17 C17        23.0510  -25.5730    9.8350 C.ar        1 MOL       0.3797
     18 C18        23.4696  -24.4211   10.5308 C.ar        1 MOL       0.1691
     19 C19        23.0510  -24.1667   11.8591 C.ar        1 MOL       0.2168
     20 C20        22.2000  -25.1194   12.4737 C.ar        1 MOL       0.1162
     21 N21        23.4226  -23.0334   12.5241 N.2         1 MOL      -0.1404
     22 O22        21.7843  -27.5917    9.7678 O.3         1 MOL      -0.1763
     23 O23        23.4214  -25.7375    8.5358 O.3         1 MOL      -0.1825
     24 O24        19.8430  -26.8061   12.7759 O.2         1 MOL      -0.3823
     25 O25        24.1826  -22.1293   11.9779 O.2         1 MOL      -0.4541
     26 O26        23.0804  -22.7870   13.6504 O.2         1 MOL      -0.4541
     27 C27        20.9814  -31.1375    6.8659 C.ar        1 MOL      -0.0217
     28 C28        19.9670  -30.9242    5.9164 C.ar        1 MOL       0.0039
     29 N29        19.8528  -31.7489    4.8482 N.ar        1 MOL      -0.3066
     30 C30        20.7042  -32.7855    4.6296 C.ar        1 MOL       0.0039
     31 C31        21.7316  -33.0496    5.5540 C.ar        1 MOL      -0.0217
     32 H1         22.4387  -33.5535   12.4909 H           1 MOL       0.0667
     33 H2         23.7269  -33.3605   10.5484 H           1 MOL       0.0659
     34 H3         21.1637  -33.6417    8.8892 H           1 MOL       0.0771
     35 H4         20.0276  -32.4544   11.1869 H           1 MOL       0.0748
     36 H5         22.3753  -30.9929   12.3064 H           1 MOL       0.0477
     37 H6         21.4094  -35.4277   12.0821 H           1 MOL       0.2102
     38 H7         22.0760  -35.5608    9.8317 H           1 MOL       0.2101
     39 H8         19.5175  -30.6657   12.6325 H           1 MOL       0.0470
     40 H9         21.4984  -29.6573   14.4146 H           1 MOL       0.0643
     41 H10        19.9100  -28.9630   14.1138 H           1 MOL       0.0643
     42 H11        22.3749  -28.5296   12.5658 H           1 MOL       0.1867
     43 H12        24.0747  -23.7536   10.0470 H           1 MOL       0.1086
     44 H13        21.8885  -24.9625   13.4377 H           1 MOL       0.1563
     45 H14        20.8460  -27.3963    9.5914 H           1 MOL       0.3540
     46 H15        23.6510  -26.6799    8.4434 H           1 MOL       0.3497
     47 H16        21.0636  -30.5101    7.6682 H           1 MOL       0.0660
     48 H17        19.3060  -30.1557    6.0314 H           1 MOL       0.0803
     49 H18        20.5868  -33.3737    3.8040 H           1 MOL       0.0803
     50 H19        22.3661  -33.8363    5.3948 H           1 MOL       0.0660
@<TRIPOS>BOND
     1     1     2   1
     2     1     5   1
     3     1     8   1
     4     2     3   1
     5     2     9   1
     6     3     4   1
     7     3     7   1
     8     4     5   1
     9     5     6   1
    10     6    10   2
    11     7    11   1
    12    10    12   1
    13    11    27  ar
    14    11    31  ar
    15    12    13   1
    16    13    14  am
    17    14    15   1
    18    14    24   2
    19    15    16  ar
    20    15    20  ar
    21    16    17  ar
    22    16    22   1
    23    17    18  ar
    24    17    23   1
    25    18    19  ar
    26    19    20  ar
    27    19    21   1
    28    21    25   2
    29    21    26   2
    30    27    28  ar
    31    28    29  ar
    32    29    30  ar
    33    30    31  ar
    34     1    32   1
    35     2    33   1
    36     3    34   1
    37     5    35   1
    38     6    36   1
    39     8    37   1
    40     9    38   1
    41    10    39   1
    42    12    40   1
    43    12    41   1
    44    13    42   1
    45    18    43   1
    46    20    44   1
    47    22    45   1
    48    23    46   1
    49    27    47   1
    50    28    48   1
    51    30    49   1
    52    31    50   1
@<TRIPOS>SUBSTRUCTURE
     1  MOL      1

