@<TRIPOS>MOLECULE
3oe5_ligand_058
    50    52
SMALL
GAST_HUCK
****
This file was generated by PARSER (from files_GN.cpp)

@<TRIPOS>ATOM
      1 C1         22.2715  -32.7136   13.1588 C.3         1 MOL       0.1170
      2 C2         22.4696  -34.1521   13.6575 C.3         1 MOL       0.1229
      3 C3         21.5807  -34.9438   12.6714 C.3         1 MOL       0.1499
      4 O4         20.5194  -34.0638   12.2576 O.3         1 MOL      -0.3460
      5 C5         20.7817  -32.7503   12.7675 C.3         1 MOL       0.1063
      6 C6         20.3902  -31.7687   11.7774 C.2         1 MOL      -0.0658
      7 S7         22.5156  -35.4633   11.2063 S.3         1 MOL      -0.0558
      8 O8         22.5480  -31.7062   14.1293 O.3         1 MOL      -0.3847
      9 O9         21.9944  -34.3018   14.9973 O.3         1 MOL      -0.3853
     10 C10        19.1165  -31.3811   11.6054 C.2         1 MOL      -0.0744
     11 C11        21.1629  -35.7597   10.1519 C.ar        1 MOL       0.0383
     12 C12        18.7072  -30.4503   10.5707 C.3         1 MOL       0.0473
     13 N13        19.4691  -29.2358   10.6084 N.am        1 MOL      -0.2765
     14 C14        20.4657  -28.9015    9.7853 C.2         1 MOL       0.2411
     15 C15        21.2583  -27.7610    9.9935 C.ar        1 MOL       0.2482
     16 C16        22.1456  -27.2684    8.9925 C.ar        1 MOL       0.3921
     17 C17        22.9367  -26.1335    9.2290 C.ar        1 MOL       0.3797
     18 C18        22.8551  -25.4537   10.4521 C.ar        1 MOL       0.1691
     19 C19        21.9696  -25.8831   11.4707 C.ar        1 MOL       0.2168
     20 C20        21.2074  -27.0478   11.2199 C.ar        1 MOL       0.1162
     21 N21        21.8526  -25.1870   12.6394 N.2         1 MOL      -0.1404
     22 O22        22.2533  -27.8391    7.7681 O.3         1 MOL      -0.1763
     23 O23        23.7779  -25.6866    8.2645 O.3         1 MOL      -0.1825
     24 O24        20.7166  -29.6508    8.8466 O.2         1 MOL      -0.3823
     25 O25        22.5392  -24.1071   12.8904 O.2         1 MOL      -0.4541
     26 O26        21.0701  -25.4985   13.4998 O.2         1 MOL      -0.4541
     27 C27        21.1128  -35.1492    8.8824 C.ar        1 MOL      -0.0217
     28 C28        20.0358  -35.4417    8.0273 C.ar        1 MOL       0.0039
     29 N29        19.0644  -36.3008    8.4302 N.ar        1 MOL      -0.3066
     30 C30        19.0803  -36.9042    9.6455 C.ar        1 MOL       0.0039
     31 C31        20.1387  -36.6498   10.5382 C.ar        1 MOL      -0.0217
     32 H1         22.9084  -32.5434   12.2830 H           1 MOL       0.0667
     33 H2         23.5220  -34.4529   13.6214 H           1 MOL       0.0659
     34 H3         21.1605  -35.8282   13.1546 H           1 MOL       0.0771
     35 H4         20.1889  -32.6144   13.6793 H           1 MOL       0.0748
     36 H5         21.0952  -31.3888   11.1879 H           1 MOL       0.0477
     37 H6         23.4722  -31.8620   14.4132 H           1 MOL       0.2102
     38 H7         22.2630  -33.4821   15.4603 H           1 MOL       0.2101
     39 H8         18.4072  -31.7727   12.1845 H           1 MOL       0.0470
     40 H9         17.6580  -30.1829   10.7138 H           1 MOL       0.0643
     41 H10        18.7842  -30.9538    9.6071 H           1 MOL       0.0643
     42 H11        19.2802  -28.6393   11.3457 H           1 MOL       0.1867
     43 H12        23.4344  -24.6217   10.5887 H           1 MOL       0.1086
     44 H13        20.5993  -27.3844   11.9712 H           1 MOL       0.1563
     45 H14        22.9548  -28.5254    7.8734 H           1 MOL       0.3540
     46 H15        24.6712  -25.8736    8.6237 H           1 MOL       0.3497
     47 H16        21.8449  -34.5046    8.5770 H           1 MOL       0.0660
     48 H17        19.9841  -35.0188    7.0968 H           1 MOL       0.0803
     49 H18        18.3323  -37.5473    9.9026 H           1 MOL       0.0803
     50 H19        20.1607  -37.1149   11.4498 H           1 MOL       0.0660
@<TRIPOS>BOND
     1     1     2   1
     2     1     5   1
     3     1     8   1
     4     2     3   1
     5     2     9   1
     6     3     4   1
     7     3     7   1
     8     4     5   1
     9     5     6   1
    10     6    10   2
    11     7    11   1
    12    10    12   1
    13    11    27  ar
    14    11    31  ar
    15    12    13   1
    16    13    14  am
    17    14    15   1
    18    14    24   2
    19    15    16  ar
    20    15    20  ar
    21    16    17  ar
    22    16    22   1
    23    17    18  ar
    24    17    23   1
    25    18    19  ar
    26    19    20  ar
    27    19    21   1
    28    21    25   2
    29    21    26   2
    30    27    28  ar
    31    28    29  ar
    32    29    30  ar
    33    30    31  ar
    34     1    32   1
    35     2    33   1
    36     3    34   1
    37     5    35   1
    38     6    36   1
    39     8    37   1
    40     9    38   1
    41    10    39   1
    42    12    40   1
    43    12    41   1
    44    13    42   1
    45    18    43   1
    46    20    44   1
    47    22    45   1
    48    23    46   1
    49    27    47   1
    50    28    48   1
    51    30    49   1
    52    31    50   1
@<TRIPOS>SUBSTRUCTURE
     1  MOL      1

