@<TRIPOS>MOLECULE
3oe5_ligand_016
    50    52
SMALL
GAST_HUCK
****
This file was generated by PARSER (from files_GN.cpp)

@<TRIPOS>ATOM
      1 C1         20.1713  -31.7199   13.3707 C.3         1 MOL       0.1170
      2 C2         18.9931  -32.6619   13.6553 C.3         1 MOL       0.1229
      3 C3         17.7915  -31.6972   13.6490 C.3         1 MOL       0.1499
      4 O4         18.2774  -30.4006   14.0024 O.3         1 MOL      -0.3460
      5 C5         19.7214  -30.4204   14.0737 C.3         1 MOL       0.1063
      6 C6         20.3596  -29.2233   13.5332 C.2         1 MOL      -0.0658
      7 S7         17.0136  -31.5485   12.0147 S.3         1 MOL      -0.0558
      8 O8         21.4110  -32.2224   13.8668 O.3         1 MOL      -0.3847
      9 O9         19.1104  -33.2923   14.9342 O.3         1 MOL      -0.3853
     10 C10        19.6909  -28.1728   13.0271 C.2         1 MOL      -0.0744
     11 C11        15.4220  -31.1125   12.5698 C.ar        1 MOL       0.0383
     12 C12        20.3224  -27.0288   12.3899 C.3         1 MOL       0.0473
     13 N13        21.1701  -27.3522   11.2800 N.am        1 MOL      -0.2765
     14 C14        20.8727  -28.1305   10.2409 C.2         1 MOL       0.2411
     15 C15        21.7125  -28.2018    9.1272 C.ar        1 MOL       0.2482
     16 C16        22.5367  -27.1161    8.7320 C.ar        1 MOL       0.3921
     17 C17        23.3895  -27.2263    7.6180 C.ar        1 MOL       0.3797
     18 C18        23.4016  -28.4080    6.8531 C.ar        1 MOL       0.1691
     19 C19        22.5749  -29.5068    7.1905 C.ar        1 MOL       0.2168
     20 C20        21.7401  -29.3754    8.3306 C.ar        1 MOL       0.1162
     21 N21        22.5872  -30.6532    6.4494 N.2         1 MOL      -0.1404
     22 O22        22.4761  -25.9060    9.3511 O.3         1 MOL      -0.1763
     23 O23        24.1358  -26.1568    7.2443 O.3         1 MOL      -0.1825
     24 O24        19.8418  -28.7975   10.2532 O.2         1 MOL      -0.3823
     25 O25        23.3373  -30.7960    5.3895 O.2         1 MOL      -0.4541
     26 O26        21.9131  -31.6132    6.7208 O.2         1 MOL      -0.4541
     27 C27        15.0923  -29.7762   12.8774 C.ar        1 MOL      -0.0217
     28 C28        13.8011  -29.4862   13.3559 C.ar        1 MOL       0.0039
     29 N29        12.9001  -30.4887   13.5152 N.ar        1 MOL      -0.3066
     30 C30        13.1831  -31.7838   13.2267 C.ar        1 MOL       0.0039
     31 C31        14.4564  -32.1269   12.7402 C.ar        1 MOL      -0.0217
     32 H1         20.2597  -31.5664   12.2893 H           1 MOL       0.0667
     33 H2         18.9172  -33.4428   12.8951 H           1 MOL       0.0659
     34 H3         17.0601  -32.0185   14.3924 H           1 MOL       0.0771
     35 H4         19.9915  -30.4845   15.1325 H           1 MOL       0.0748
     36 H5         21.3550  -29.1997   13.5281 H           1 MOL       0.0477
     37 H6         21.5501  -33.0708   13.3955 H           1 MOL       0.2102
     38 H7         18.8826  -32.5993   15.5924 H           1 MOL       0.2101
     39 H8         18.6977  -28.1896   13.0282 H           1 MOL       0.0470
     40 H9         20.9078  -26.4776   13.1297 H           1 MOL       0.0643
     41 H10        19.5500  -26.3451   12.0253 H           1 MOL       0.0643
     42 H11        22.0221  -26.8876   11.2443 H           1 MOL       0.1867
     43 H12        24.0098  -28.4499    6.0321 H           1 MOL       0.1086
     44 H13        21.1525  -30.1667    8.6011 H           1 MOL       0.1563
     45 H14        21.5261  -25.7586    9.5409 H           1 MOL       0.3540
     46 H15        25.0786  -26.4298    7.2926 H           1 MOL       0.3497
     47 H16        15.7765  -29.0243   12.7710 H           1 MOL       0.0660
     48 H17        13.5368  -28.5286   13.5926 H           1 MOL       0.0803
     49 H18        12.4715  -32.5046   13.3689 H           1 MOL       0.0803
     50 H19        14.6750  -33.1046   12.5324 H           1 MOL       0.0660
@<TRIPOS>BOND
     1     1     2   1
     2     1     5   1
     3     1     8   1
     4     2     3   1
     5     2     9   1
     6     3     4   1
     7     3     7   1
     8     4     5   1
     9     5     6   1
    10     6    10   2
    11     7    11   1
    12    10    12   1
    13    11    27  ar
    14    11    31  ar
    15    12    13   1
    16    13    14  am
    17    14    15   1
    18    14    24   2
    19    15    16  ar
    20    15    20  ar
    21    16    17  ar
    22    16    22   1
    23    17    18  ar
    24    17    23   1
    25    18    19  ar
    26    19    20  ar
    27    19    21   1
    28    21    25   2
    29    21    26   2
    30    27    28  ar
    31    28    29  ar
    32    29    30  ar
    33    30    31  ar
    34     1    32   1
    35     2    33   1
    36     3    34   1
    37     5    35   1
    38     6    36   1
    39     8    37   1
    40     9    38   1
    41    10    39   1
    42    12    40   1
    43    12    41   1
    44    13    42   1
    45    18    43   1
    46    20    44   1
    47    22    45   1
    48    23    46   1
    49    27    47   1
    50    28    48   1
    51    30    49   1
    52    31    50   1
@<TRIPOS>SUBSTRUCTURE
     1  MOL      1

