@<TRIPOS>MOLECULE
3oe5_ligand_008
    50    52
SMALL
GAST_HUCK
****
This file was generated by PARSER (from files_GN.cpp)

@<TRIPOS>ATOM
      1 C1         20.1405  -30.0559   13.5522 C.3         1 MOL       0.1170
      2 C2         21.0858  -31.1795   14.0203 C.3         1 MOL       0.1229
      3 C3         21.4346  -31.9301   12.7094 C.3         1 MOL       0.1499
      4 O4         20.9028  -31.1751   11.6014 O.3         1 MOL      -0.3460
      5 C5         20.5105  -29.8751   12.0653 C.3         1 MOL       0.1063
      6 C6         21.5851  -28.9089   11.8277 C.2         1 MOL      -0.0658
      7 S7         23.2214  -32.1502   12.4971 S.3         1 MOL      -0.0558
      8 O8         18.7722  -30.4437   13.6635 O.3         1 MOL      -0.3847
      9 O9         20.5137  -32.0728   14.9805 O.3         1 MOL      -0.3853
     10 C10        21.4334  -27.8047   11.0823 C.2         1 MOL      -0.0744
     11 C11        23.2090  -33.3076   11.1967 C.ar        1 MOL       0.0383
     12 C12        22.5331  -26.9400   10.6764 C.3         1 MOL       0.0473
     13 N13        23.1710  -27.2133    9.4166 N.am        1 MOL      -0.2765
     14 C14        22.7310  -27.9040    8.3636 C.2         1 MOL       0.2411
     15 C15        23.5434  -28.1076    7.2396 C.ar        1 MOL       0.2482
     16 C16        24.3936  -27.1011    6.7197 C.ar        1 MOL       0.3921
     17 C17        25.2081  -27.3624    5.5993 C.ar        1 MOL       0.3797
     18 C18        25.1883  -28.6282    4.9878 C.ar        1 MOL       0.1691
     19 C19        24.3539  -29.6630    5.4723 C.ar        1 MOL       0.2168
     20 C20        23.5368  -29.3727    6.5916 C.ar        1 MOL       0.1162
     21 N21        24.3493  -30.8980    4.8840 N.2         1 MOL      -0.1404
     22 O22        24.3915  -25.8451    7.2369 O.3         1 MOL      -0.1763
     23 O23        26.0029  -26.3917    5.0882 O.3         1 MOL      -0.1825
     24 O24        21.6226  -28.4207    8.3793 O.2         1 MOL      -0.3823
     25 O25        25.1180  -31.1920    3.8686 O.2         1 MOL      -0.4541
     26 O26        23.6599  -31.7996    5.2698 O.2         1 MOL      -0.4541
     27 C27        23.8398  -34.5548   11.3948 C.ar        1 MOL      -0.0217
     28 C28        23.8633  -35.4860   10.3409 C.ar        1 MOL       0.0039
     29 N29        23.2974  -35.1720    9.1465 N.ar        1 MOL      -0.3066
     30 C30        22.6970  -33.9740    8.9180 C.ar        1 MOL       0.0039
     31 C31        22.6393  -33.0101    9.9404 C.ar        1 MOL      -0.0217
     32 H1         20.2909  -29.1386   14.1318 H           1 MOL       0.0667
     33 H2         21.9705  -30.7252   14.4748 H           1 MOL       0.0659
     34 H3         20.9539  -32.9110   12.7038 H           1 MOL       0.0771
     35 H4         19.6182  -29.5843   11.5098 H           1 MOL       0.0748
     36 H5         22.4804  -29.1013   12.2295 H           1 MOL       0.0477
     37 H6         18.5286  -30.2159   14.5742 H           1 MOL       0.2102
     38 H7         19.7989  -31.5656   15.4363 H           1 MOL       0.2101
     39 H8         20.5351  -27.5858   10.7303 H           1 MOL       0.0470
     40 H9         23.3138  -26.9595   11.4457 H           1 MOL       0.0643
     41 H10        22.1757  -25.9066   10.6356 H           1 MOL       0.0643
     42 H11        24.0512  -26.8181    9.3210 H           1 MOL       0.1867
     43 H12        25.7891  -28.7863    4.1737 H           1 MOL       0.1086
     44 H13        22.9397  -30.1125    6.9625 H           1 MOL       0.1563
     45 H14        25.3378  -25.6130    7.3765 H           1 MOL       0.3540
     46 H15        26.9088  -26.6245    5.4014 H           1 MOL       0.3497
     47 H16        24.2798  -34.7887   12.2889 H           1 MOL       0.0660
     48 H17        24.3077  -36.3982   10.4673 H           1 MOL       0.0803
     49 H18        22.2942  -33.7815    7.9992 H           1 MOL       0.0803
     50 H19        22.1885  -32.1078    9.7625 H           1 MOL       0.0660
@<TRIPOS>BOND
     1     1     2   1
     2     1     5   1
     3     1     8   1
     4     2     3   1
     5     2     9   1
     6     3     4   1
     7     3     7   1
     8     4     5   1
     9     5     6   1
    10     6    10   2
    11     7    11   1
    12    10    12   1
    13    11    27  ar
    14    11    31  ar
    15    12    13   1
    16    13    14  am
    17    14    15   1
    18    14    24   2
    19    15    16  ar
    20    15    20  ar
    21    16    17  ar
    22    16    22   1
    23    17    18  ar
    24    17    23   1
    25    18    19  ar
    26    19    20  ar
    27    19    21   1
    28    21    25   2
    29    21    26   2
    30    27    28  ar
    31    28    29  ar
    32    29    30  ar
    33    30    31  ar
    34     1    32   1
    35     2    33   1
    36     3    34   1
    37     5    35   1
    38     6    36   1
    39     8    37   1
    40     9    38   1
    41    10    39   1
    42    12    40   1
    43    12    41   1
    44    13    42   1
    45    18    43   1
    46    20    44   1
    47    22    45   1
    48    23    46   1
    49    27    47   1
    50    28    48   1
    51    30    49   1
    52    31    50   1
@<TRIPOS>SUBSTRUCTURE
     1  MOL      1

