@<TRIPOS>MOLECULE
3oe5_ligand_024
    50    52
SMALL
GAST_HUCK
****
This file was generated by PARSER (from files_GN.cpp)

@<TRIPOS>ATOM
      1 C1         23.9220  -27.0094    6.2714 C.3         1 MOL       0.1170
      2 C2         24.8847  -27.5630    5.2047 C.3         1 MOL       0.1229
      3 C3         25.6501  -28.6713    5.9574 C.3         1 MOL       0.1499
      4 O4         24.7113  -29.2159    6.8886 O.3         1 MOL      -0.3460
      5 C5         23.8647  -28.1390    7.3319 C.3         1 MOL       0.1063
      6 C6         22.5175  -28.6198    7.6056 C.2         1 MOL      -0.0658
      7 S7         26.3015  -29.9237    4.8127 S.3         1 MOL      -0.0558
      8 O8         24.3520  -25.7776    6.8673 O.3         1 MOL      -0.3847
      9 O9         25.7568  -26.5893    4.6293 O.3         1 MOL      -0.3853
     10 C10        21.8936  -29.5550    6.8515 C.2         1 MOL      -0.0744
     11 C11        26.2051  -31.3427    5.8221 C.ar        1 MOL       0.0383
     12 C12        20.6460  -30.2124    7.2026 C.3         1 MOL       0.0473
     13 N13        20.1066  -29.8775    8.4939 N.am        1 MOL      -0.2765
     14 C14        19.9856  -30.6710    9.5489 C.2         1 MOL       0.2411
     15 C15        19.4092  -30.2003   10.7240 C.ar        1 MOL       0.2482
     16 C16        19.8800  -29.0366   11.3724 C.ar        1 MOL       0.3921
     17 C17        19.2680  -28.5773   12.5561 C.ar        1 MOL       0.3797
     18 C18        18.1614  -29.2617   13.0841 C.ar        1 MOL       0.1691
     19 C19        17.6568  -30.4323   12.4726 C.ar        1 MOL       0.2168
     20 C20        18.3125  -30.8880   11.2949 C.ar        1 MOL       0.1162
     21 N21        16.5862  -31.0943   12.9952 N.2         1 MOL      -0.1404
     22 O22        20.9583  -28.3553   10.9044 O.3         1 MOL      -0.1763
     23 O23        19.7451  -27.4894   13.2143 O.3         1 MOL      -0.1825
     24 O24        20.3596  -31.8391    9.5124 O.2         1 MOL      -0.3823
     25 O25        15.9829  -30.6985   14.0825 O.2         1 MOL      -0.4541
     26 O26        16.1243  -32.0899   12.4913 O.2         1 MOL      -0.4541
     27 C27        24.9353  -31.8357    6.2085 C.ar        1 MOL      -0.0217
     28 C28        24.8757  -32.9949    7.0025 C.ar        1 MOL       0.0039
     29 N29        26.0233  -33.5886    7.4314 N.ar        1 MOL      -0.3066
     30 C30        27.2544  -33.1314    7.0853 C.ar        1 MOL       0.0039
     31 C31        27.3732  -31.9985    6.2569 C.ar        1 MOL      -0.0217
     32 H1         22.9452  -26.8222    5.8045 H           1 MOL       0.0667
     33 H2         24.2910  -28.0135    4.3990 H           1 MOL       0.0659
     34 H3         26.4936  -28.2495    6.5146 H           1 MOL       0.0771
     35 H4         24.2810  -27.7556    8.2760 H           1 MOL       0.0748
     36 H5         22.0573  -28.2623    8.4215 H           1 MOL       0.0477
     37 H6         25.3224  -25.8485    7.0188 H           1 MOL       0.2102
     38 H7         26.0941  -26.0656    5.3869 H           1 MOL       0.2101
     39 H8         22.3298  -29.8470    6.0030 H           1 MOL       0.0470
     40 H9         20.8209  -31.2908    7.1226 H           1 MOL       0.0643
     41 H10        19.8921  -29.9524    6.4547 H           1 MOL       0.0643
     42 H11        19.7902  -28.9659    8.6076 H           1 MOL       0.1867
     43 H12        17.7249  -28.8935   13.9332 H           1 MOL       0.1086
     44 H13        17.9555  -31.7289   10.8402 H           1 MOL       0.1563
     45 H14        20.5881  -27.6280   10.3605 H           1 MOL       0.3540
     46 H15        20.6103  -27.7676   13.5818 H           1 MOL       0.3497
     47 H16        24.0647  -31.3625    5.9239 H           1 MOL       0.0660
     48 H17        23.9731  -33.3748    7.2917 H           1 MOL       0.0803
     49 H18        28.0857  -33.6056    7.4373 H           1 MOL       0.0803
     50 H19        28.3003  -31.6638    5.9835 H           1 MOL       0.0660
@<TRIPOS>BOND
     1     1     2   1
     2     1     5   1
     3     1     8   1
     4     2     3   1
     5     2     9   1
     6     3     4   1
     7     3     7   1
     8     4     5   1
     9     5     6   1
    10     6    10   2
    11     7    11   1
    12    10    12   1
    13    11    27  ar
    14    11    31  ar
    15    12    13   1
    16    13    14  am
    17    14    15   1
    18    14    24   2
    19    15    16  ar
    20    15    20  ar
    21    16    17  ar
    22    16    22   1
    23    17    18  ar
    24    17    23   1
    25    18    19  ar
    26    19    20  ar
    27    19    21   1
    28    21    25   2
    29    21    26   2
    30    27    28  ar
    31    28    29  ar
    32    29    30  ar
    33    30    31  ar
    34     1    32   1
    35     2    33   1
    36     3    34   1
    37     5    35   1
    38     6    36   1
    39     8    37   1
    40     9    38   1
    41    10    39   1
    42    12    40   1
    43    12    41   1
    44    13    42   1
    45    18    43   1
    46    20    44   1
    47    22    45   1
    48    23    46   1
    49    27    47   1
    50    28    48   1
    51    30    49   1
    52    31    50   1
@<TRIPOS>SUBSTRUCTURE
     1  MOL      1

