@<TRIPOS>MOLECULE
3oe5_ligand_055
    50    52
SMALL
GAST_HUCK
****
This file was generated by PARSER (from files_GN.cpp)

@<TRIPOS>ATOM
      1 C1         21.2142  -32.4554   13.8117 C.3         1 MOL       0.1170
      2 C2         21.8793  -33.8436   13.8619 C.3         1 MOL       0.1229
      3 C3         20.8084  -34.7580   13.2435 C.3         1 MOL       0.1499
      4 O4         20.1954  -33.9507   12.2377 O.3         1 MOL      -0.3460
      5 C5         20.1227  -32.5999   12.7131 C.3         1 MOL       0.1063
      6 C6         20.2784  -31.7063   11.5770 C.2         1 MOL      -0.0658
      7 S7         21.5197  -36.2986   12.5904 S.3         1 MOL      -0.0558
      8 O8         20.6303  -32.0968   15.0649 O.3         1 MOL      -0.3847
      9 O9         22.2321  -34.2550   15.1796 O.3         1 MOL      -0.3853
     10 C10        20.2250  -30.3725   11.6931 C.2         1 MOL      -0.0744
     11 C11        20.7301  -36.3400   11.0391 C.ar        1 MOL       0.0383
     12 C12        20.4505  -29.4981   10.5574 C.3         1 MOL       0.0473
     13 N13        20.5093  -28.1124   10.9015 N.am        1 MOL      -0.2765
     14 C14        21.4476  -27.5030   11.6252 C.2         1 MOL       0.2411
     15 C15        21.4510  -26.1120   11.8470 C.ar        1 MOL       0.2482
     16 C16        20.2941  -25.2922   11.7126 C.ar        1 MOL       0.3921
     17 C17        20.3710  -23.8988   11.9331 C.ar        1 MOL       0.3797
     18 C18        21.5705  -23.3149   12.3621 C.ar        1 MOL       0.1691
     19 C19        22.7368  -24.0930   12.5439 C.ar        1 MOL       0.2168
     20 C20        22.6584  -25.4750   12.2407 C.ar        1 MOL       0.1162
     21 N21        23.8848  -23.5291   13.0174 N.2         1 MOL      -0.1404
     22 O22        19.0761  -25.8357   11.4333 O.3         1 MOL      -0.1763
     23 O23        19.2898  -23.0948   11.7774 O.3         1 MOL      -0.1825
     24 O24        22.3589  -28.1916   12.0698 O.2         1 MOL      -0.3823
     25 O25        23.9481  -22.2778   13.3823 O.2         1 MOL      -0.4541
     26 O26        24.8786  -24.1733   13.2288 O.2         1 MOL      -0.4541
     27 C27        19.4589  -36.9349   10.8909 C.ar        1 MOL      -0.0217
     28 C28        18.8318  -36.9023    9.6304 C.ar        1 MOL       0.0039
     29 N29        19.4461  -36.2918    8.5852 N.ar        1 MOL      -0.3066
     30 C30        20.6652  -35.7053    8.6934 C.ar        1 MOL       0.0039
     31 C31        21.3379  -35.7135    9.9292 C.ar        1 MOL      -0.0217
     32 H1         21.9652  -31.6967   13.5693 H           1 MOL       0.0667
     33 H2         22.7786  -33.8361   13.2390 H           1 MOL       0.0659
     34 H3         20.0532  -35.0206   13.9896 H           1 MOL       0.0771
     35 H4         19.1234  -32.4557   13.1336 H           1 MOL       0.0748
     36 H5         20.4444  -32.1012   10.6769 H           1 MOL       0.0477
     37 H6         19.9852  -32.8091   15.2655 H           1 MOL       0.2102
     38 H7         22.8783  -33.5859   15.4944 H           1 MOL       0.2101
     39 H8         20.0615  -29.9667   12.5882 H           1 MOL       0.0470
     40 H9         19.6340  -29.6310    9.8462 H           1 MOL       0.0643
     41 H10        21.3864  -29.7683   10.0533 H           1 MOL       0.0643
     42 H11        19.8172  -27.5597   10.5156 H           1 MOL       0.1867
     43 H12        21.5795  -22.3117   12.5608 H           1 MOL       0.1086
     44 H13        23.5109  -26.0355   12.3289 H           1 MOL       0.1563
     45 H14        18.4396  -25.1065   11.2702 H           1 MOL       0.3540
     46 H15        18.7375  -23.2791   12.5618 H           1 MOL       0.3497
     47 H16        18.9855  -37.3700   11.6854 H           1 MOL       0.0660
     48 H17        17.9123  -37.3262    9.4986 H           1 MOL       0.0803
     49 H18        21.0857  -35.2536    7.8787 H           1 MOL       0.0803
     50 H19        22.2435  -35.2468   10.0182 H           1 MOL       0.0660
@<TRIPOS>BOND
     1     1     2   1
     2     1     5   1
     3     1     8   1
     4     2     3   1
     5     2     9   1
     6     3     4   1
     7     3     7   1
     8     4     5   1
     9     5     6   1
    10     6    10   2
    11     7    11   1
    12    10    12   1
    13    11    27  ar
    14    11    31  ar
    15    12    13   1
    16    13    14  am
    17    14    15   1
    18    14    24   2
    19    15    16  ar
    20    15    20  ar
    21    16    17  ar
    22    16    22   1
    23    17    18  ar
    24    17    23   1
    25    18    19  ar
    26    19    20  ar
    27    19    21   1
    28    21    25   2
    29    21    26   2
    30    27    28  ar
    31    28    29  ar
    32    29    30  ar
    33    30    31  ar
    34     1    32   1
    35     2    33   1
    36     3    34   1
    37     5    35   1
    38     6    36   1
    39     8    37   1
    40     9    38   1
    41    10    39   1
    42    12    40   1
    43    12    41   1
    44    13    42   1
    45    18    43   1
    46    20    44   1
    47    22    45   1
    48    23    46   1
    49    27    47   1
    50    28    48   1
    51    30    49   1
    52    31    50   1
@<TRIPOS>SUBSTRUCTURE
     1  MOL      1

