@<TRIPOS>MOLECULE
3oe5_ligand_070
    50    52
SMALL
GAST_HUCK
****
This file was generated by PARSER (from files_GN.cpp)

@<TRIPOS>ATOM
      1 C1         21.7926  -34.4353    9.7808 C.3         1 MOL       0.1170
      2 C2         21.7892  -34.9567   11.2378 C.3         1 MOL       0.1229
      3 C3         21.4018  -33.7064   12.0688 C.3         1 MOL       0.1499
      4 O4         21.1657  -32.6522   11.1260 O.3         1 MOL      -0.3460
      5 C5         21.9640  -32.9093    9.9691 C.3         1 MOL       0.1063
      6 C6         21.5347  -31.9706    8.9415 C.2         1 MOL      -0.0658
      7 S7         19.9416  -33.9544   13.1224 S.3         1 MOL      -0.0558
      8 O8         22.7979  -35.0119    8.9472 O.3         1 MOL      -0.3847
      9 O9         23.0608  -35.4688   11.6394 O.3         1 MOL      -0.3853
     10 C10        21.1471  -32.2664    7.6901 C.2         1 MOL      -0.0744
     11 C11        19.4573  -32.2897   13.3190 C.ar        1 MOL       0.0383
     12 C12        20.6701  -31.2577    6.7519 C.3         1 MOL       0.0473
     13 N13        21.6355  -30.2279    6.4914 N.am        1 MOL      -0.2765
     14 C14        22.8249  -30.3794    5.9200 C.2         1 MOL       0.2411
     15 C15        23.7226  -29.3074    5.7309 C.ar        1 MOL       0.2482
     16 C16        23.6165  -28.0695    6.4259 C.ar        1 MOL       0.3921
     17 C17        24.5477  -27.0350    6.2105 C.ar        1 MOL       0.3797
     18 C18        25.5944  -27.2079    5.2855 C.ar        1 MOL       0.1691
     19 C19        25.7395  -28.4145    4.5636 C.ar        1 MOL       0.2168
     20 C20        24.7976  -29.4441    4.8136 C.ar        1 MOL       0.1162
     21 N21        26.7532  -28.5718    3.6622 N.2         1 MOL      -0.1404
     22 O22        22.6522  -27.8212    7.3429 O.3         1 MOL      -0.1763
     23 O23        24.4180  -25.8660    6.8893 O.3         1 MOL      -0.1825
     24 O24        23.1389  -31.4995    5.5381 O.2         1 MOL      -0.3823
     25 O25        27.6366  -27.6361    3.4286 O.2         1 MOL      -0.4541
     26 O26        26.9107  -29.5839    3.0295 O.2         1 MOL      -0.4541
     27 C27        20.2940  -31.3491   13.9588 C.ar        1 MOL      -0.0217
     28 C28        19.9009  -29.9996   14.0015 C.ar        1 MOL       0.0039
     29 N29        18.7253  -29.6188   13.4369 N.ar        1 MOL      -0.3066
     30 C30        17.8831  -30.4993   12.8411 C.ar        1 MOL       0.0039
     31 C31        18.2307  -31.8635   12.7698 C.ar        1 MOL      -0.0217
     32 H1         20.8162  -34.6507    9.3347 H           1 MOL       0.0667
     33 H2         21.0593  -35.7662   11.3393 H           1 MOL       0.0659
     34 H3         22.2324  -33.4018   12.7117 H           1 MOL       0.0771
     35 H4         23.0150  -32.6897   10.1978 H           1 MOL       0.0748
     36 H5         21.5267  -31.0095    9.2111 H           1 MOL       0.0477
     37 H6         23.6533  -34.7948    9.3745 H           1 MOL       0.2102
     38 H7         23.6909  -34.7259   11.5245 H           1 MOL       0.2101
     39 H8         21.1804  -33.2104    7.3780 H           1 MOL       0.0470
     40 H9         19.7811  -30.7835    7.1750 H           1 MOL       0.0643
     41 H10        20.3744  -31.7202    5.8070 H           1 MOL       0.0643
     42 H11        21.3741  -29.3342    6.7570 H           1 MOL       0.1867
     43 H12        26.2503  -26.4369    5.1410 H           1 MOL       0.1086
     44 H13        24.8973  -30.3195    4.2932 H           1 MOL       0.1563
     45 H14        23.0322  -28.1351    8.1902 H           1 MOL       0.3540
     46 H15        25.3131  -25.4721    6.9245 H           1 MOL       0.3497
     47 H16        21.1867  -31.6314   14.3656 H           1 MOL       0.0660
     48 H17        20.4958  -29.3017   14.4476 H           1 MOL       0.0803
     49 H18        17.0039  -30.1680   12.4390 H           1 MOL       0.0803
     50 H19        17.6009  -32.5212   12.3028 H           1 MOL       0.0660
@<TRIPOS>BOND
     1     1     2   1
     2     1     5   1
     3     1     8   1
     4     2     3   1
     5     2     9   1
     6     3     4   1
     7     3     7   1
     8     4     5   1
     9     5     6   1
    10     6    10   2
    11     7    11   1
    12    10    12   1
    13    11    27  ar
    14    11    31  ar
    15    12    13   1
    16    13    14  am
    17    14    15   1
    18    14    24   2
    19    15    16  ar
    20    15    20  ar
    21    16    17  ar
    22    16    22   1
    23    17    18  ar
    24    17    23   1
    25    18    19  ar
    26    19    20  ar
    27    19    21   1
    28    21    25   2
    29    21    26   2
    30    27    28  ar
    31    28    29  ar
    32    29    30  ar
    33    30    31  ar
    34     1    32   1
    35     2    33   1
    36     3    34   1
    37     5    35   1
    38     6    36   1
    39     8    37   1
    40     9    38   1
    41    10    39   1
    42    12    40   1
    43    12    41   1
    44    13    42   1
    45    18    43   1
    46    20    44   1
    47    22    45   1
    48    23    46   1
    49    27    47   1
    50    28    48   1
    51    30    49   1
    52    31    50   1
@<TRIPOS>SUBSTRUCTURE
     1  MOL      1

