@<TRIPOS>MOLECULE
3oe5_ligand_017
    50    52
SMALL
GAST_HUCK
****
This file was generated by PARSER (from files_GN.cpp)

@<TRIPOS>ATOM
      1 C1         20.3224  -32.2057    6.4361 C.3         1 MOL       0.1170
      2 C2         21.4149  -32.3395    5.3421 C.3         1 MOL       0.1229
      3 C3         22.1860  -30.9939    5.3967 C.3         1 MOL       0.1499
      4 O4         21.8421  -30.4350    6.6603 O.3         1 MOL      -0.3460
      5 C5         20.4564  -30.7306    6.8813 C.3         1 MOL       0.1063
      6 C6         20.0396  -30.4795    8.2544 C.2         1 MOL      -0.0658
      7 S7         23.9864  -31.1465    5.3268 S.3         1 MOL      -0.0558
      8 O8         18.9987  -32.4813    5.9737 O.3         1 MOL      -0.3847
      9 O9         20.8841  -32.5435    4.0279 O.3         1 MOL      -0.3853
     10 C10        20.7505  -29.7529    9.1381 C.2         1 MOL      -0.0744
     11 C11        24.5373  -29.4979    5.0838 C.ar        1 MOL       0.0383
     12 C12        20.3860  -29.5372   10.5234 C.3         1 MOL       0.0473
     13 N13        20.4754  -28.1372   10.8374 N.am        1 MOL      -0.2765
     14 C14        21.4198  -27.5239   11.5486 C.2         1 MOL       0.2411
     15 C15        21.4238  -26.1312   11.7925 C.ar        1 MOL       0.2482
     16 C16        20.2668  -25.3050   11.6749 C.ar        1 MOL       0.3921
     17 C17        20.3423  -23.9141   11.9259 C.ar        1 MOL       0.3797
     18 C18        21.5441  -23.3412   12.3656 C.ar        1 MOL       0.1691
     19 C19        22.7106  -24.1213   12.5314 C.ar        1 MOL       0.2168
     20 C20        22.6266  -25.4995   12.2093 C.ar        1 MOL       0.1162
     21 N21        23.8652  -23.5615   12.9980 N.2         1 MOL      -0.1404
     22 O22        19.0513  -25.8472   11.3883 O.3         1 MOL      -0.1763
     23 O23        19.2702  -23.1004   11.7744 O.3         1 MOL      -0.1825
     24 O24        22.3534  -28.2014   11.9647 O.2         1 MOL      -0.3823
     25 O25        23.9366  -22.3088   13.3522 O.2         1 MOL      -0.4541
     26 O26        24.8657  -24.2055   13.1792 O.2         1 MOL      -0.4541
     27 C27        25.6860  -29.3043    4.2816 C.ar        1 MOL      -0.0217
     28 C28        26.1810  -28.0037    4.0698 C.ar        1 MOL       0.0039
     29 N29        25.5616  -26.9390    4.6376 N.ar        1 MOL      -0.3066
     30 C30        24.4724  -27.0797    5.4322 C.ar        1 MOL       0.0039
     31 C31        23.9447  -28.3598    5.6851 C.ar        1 MOL      -0.0217
     32 H1         20.5527  -32.8848    7.2682 H           1 MOL       0.0667
     33 H2         22.0720  -33.1843    5.5841 H           1 MOL       0.0659
     34 H3         21.8492  -30.3189    4.6040 H           1 MOL       0.0771
     35 H4         19.8447  -30.0947    6.2346 H           1 MOL       0.0748
     36 H5         19.1578  -30.8418    8.5345 H           1 MOL       0.0477
     37 H6         18.8650  -33.4467    6.1053 H           1 MOL       0.2102
     38 H7         20.4220  -33.4084    4.0655 H           1 MOL       0.2101
     39 H8         21.6220  -29.3679    8.8558 H           1 MOL       0.0470
     40 H9         21.0633  -30.1380   11.1345 H           1 MOL       0.0643
     41 H10        19.3653  -29.8696   10.7405 H           1 MOL       0.0643
     42 H11        19.7915  -27.5790   10.4433 H           1 MOL       0.1867
     43 H12        21.5577  -22.3393   12.5773 H           1 MOL       0.1086
     44 H13        23.4806  -26.0607   12.2929 H           1 MOL       0.1563
     45 H14        18.4002  -25.1136   11.3170 H           1 MOL       0.3540
     46 H15        18.7451  -23.2398   12.5877 H           1 MOL       0.3497
     47 H16        26.1659  -30.1027    3.8506 H           1 MOL       0.0660
     48 H17        27.0041  -27.8558    3.4879 H           1 MOL       0.0803
     49 H18        24.0418  -26.2547    5.8490 H           1 MOL       0.0803
     50 H19        23.1445  -28.4416    6.3158 H           1 MOL       0.0660
@<TRIPOS>BOND
     1     1     2   1
     2     1     5   1
     3     1     8   1
     4     2     3   1
     5     2     9   1
     6     3     4   1
     7     3     7   1
     8     4     5   1
     9     5     6   1
    10     6    10   2
    11     7    11   1
    12    10    12   1
    13    11    27  ar
    14    11    31  ar
    15    12    13   1
    16    13    14  am
    17    14    15   1
    18    14    24   2
    19    15    16  ar
    20    15    20  ar
    21    16    17  ar
    22    16    22   1
    23    17    18  ar
    24    17    23   1
    25    18    19  ar
    26    19    20  ar
    27    19    21   1
    28    21    25   2
    29    21    26   2
    30    27    28  ar
    31    28    29  ar
    32    29    30  ar
    33    30    31  ar
    34     1    32   1
    35     2    33   1
    36     3    34   1
    37     5    35   1
    38     6    36   1
    39     8    37   1
    40     9    38   1
    41    10    39   1
    42    12    40   1
    43    12    41   1
    44    13    42   1
    45    18    43   1
    46    20    44   1
    47    22    45   1
    48    23    46   1
    49    27    47   1
    50    28    48   1
    51    30    49   1
    52    31    50   1
@<TRIPOS>SUBSTRUCTURE
     1  MOL      1

