@<TRIPOS>MOLECULE
3oe5_ligand_012
    50    52
SMALL
GAST_HUCK
****
This file was generated by PARSER (from files_GN.cpp)

@<TRIPOS>ATOM
      1 C1         20.8237  -33.6750   12.5937 C.3         1 MOL       0.1170
      2 C2         21.7116  -33.8854   13.8397 C.3         1 MOL       0.1229
      3 C3         23.1457  -33.8784   13.2694 C.3         1 MOL       0.1499
      4 O4         23.0701  -32.9970   12.1455 O.3         1 MOL      -0.3460
      5 C5         21.8335  -33.2789   11.4845 C.3         1 MOL       0.1063
      6 C6         21.4333  -32.1043   10.7254 C.2         1 MOL      -0.0658
      7 S7         24.3594  -33.3038   14.4868 S.3         1 MOL      -0.0558
      8 O8         20.0965  -34.8426   12.2044 O.3         1 MOL      -0.3847
      9 O9         21.4193  -35.0706   14.5823 O.3         1 MOL      -0.3853
     10 C10        20.9089  -32.1565    9.4912 C.2         1 MOL      -0.0744
     11 C11        25.7316  -33.0955   13.4291 C.ar        1 MOL       0.0383
     12 C12        20.4945  -30.9808    8.7455 C.3         1 MOL       0.0473
     13 N13        21.6269  -30.2184    8.3113 N.am        1 MOL      -0.2765
     14 C14        22.0838  -30.0915    7.0684 C.2         1 MOL       0.2411
     15 C15        23.1826  -29.2755    6.7868 C.ar        1 MOL       0.2482
     16 C16        23.2708  -27.9515    7.2812 C.ar        1 MOL       0.3921
     17 C17        24.3766  -27.1405    6.9636 C.ar        1 MOL       0.3797
     18 C18        25.4074  -27.6365    6.1448 C.ar        1 MOL       0.1691
     19 C19        25.3547  -28.9474    5.6161 C.ar        1 MOL       0.2168
     20 C20        24.2331  -29.7488    5.9550 C.ar        1 MOL       0.1162
     21 N21        26.3473  -29.4110    4.8045 N.2         1 MOL      -0.1404
     22 O22        22.2563  -27.3802    7.9762 O.3         1 MOL      -0.1763
     23 O23        24.4270  -25.8654    7.4151 O.3         1 MOL      -0.1825
     24 O24        21.5626  -30.7250    6.1558 O.2         1 MOL      -0.3823
     25 O25        27.3726  -28.6803    4.4599 O.2         1 MOL      -0.4541
     26 O26        26.3382  -30.5196    4.3350 O.2         1 MOL      -0.4541
     27 C27        26.8441  -33.9512   13.5430 C.ar        1 MOL      -0.0217
     28 C28        27.9743  -33.7176   12.7375 C.ar        1 MOL       0.0039
     29 N29        27.9839  -32.6747   11.8694 N.ar        1 MOL      -0.3066
     30 C30        26.9297  -31.8264   11.7350 C.ar        1 MOL       0.0039
     31 C31        25.7803  -32.0160   12.5207 C.ar        1 MOL      -0.0217
     32 H1         20.0972  -32.8786   12.7921 H           1 MOL       0.0667
     33 H2         21.5743  -33.0314   14.5121 H           1 MOL       0.0659
     34 H3         23.4285  -34.8837   12.9334 H           1 MOL       0.0771
     35 H4         22.0056  -34.1312   10.8149 H           1 MOL       0.0748
     36 H5         21.4992  -31.2206   11.1805 H           1 MOL       0.0477
     37 H6         19.4803  -35.0265   12.9424 H           1 MOL       0.2102
     38 H7         21.5237  -35.8101   13.9480 H           1 MOL       0.2101
     39 H8         20.7650  -33.0453    9.0670 H           1 MOL       0.0470
     40 H9         19.8688  -30.3476    9.3799 H           1 MOL       0.0643
     41 H10        19.8726  -31.2926    7.8953 H           1 MOL       0.0643
     42 H11        22.1544  -29.7929    9.0075 H           1 MOL       0.1867
     43 H12        26.1926  -27.0164    5.9286 H           1 MOL       0.1086
     44 H13        24.1831  -30.7028    5.5927 H           1 MOL       0.1563
     45 H14        22.5763  -27.3395    8.9094 H           1 MOL       0.3540
     46 H15        24.8466  -25.9307    8.2983 H           1 MOL       0.3497
     47 H16        26.8491  -34.7270   14.2127 H           1 MOL       0.0660
     48 H17        28.7963  -34.3225   12.8079 H           1 MOL       0.0803
     49 H18        26.9860  -31.0485   11.0764 H           1 MOL       0.0803
     50 H19        24.9970  -31.3610   12.4375 H           1 MOL       0.0660
@<TRIPOS>BOND
     1     1     2   1
     2     1     5   1
     3     1     8   1
     4     2     3   1
     5     2     9   1
     6     3     4   1
     7     3     7   1
     8     4     5   1
     9     5     6   1
    10     6    10   2
    11     7    11   1
    12    10    12   1
    13    11    27  ar
    14    11    31  ar
    15    12    13   1
    16    13    14  am
    17    14    15   1
    18    14    24   2
    19    15    16  ar
    20    15    20  ar
    21    16    17  ar
    22    16    22   1
    23    17    18  ar
    24    17    23   1
    25    18    19  ar
    26    19    20  ar
    27    19    21   1
    28    21    25   2
    29    21    26   2
    30    27    28  ar
    31    28    29  ar
    32    29    30  ar
    33    30    31  ar
    34     1    32   1
    35     2    33   1
    36     3    34   1
    37     5    35   1
    38     6    36   1
    39     8    37   1
    40     9    38   1
    41    10    39   1
    42    12    40   1
    43    12    41   1
    44    13    42   1
    45    18    43   1
    46    20    44   1
    47    22    45   1
    48    23    46   1
    49    27    47   1
    50    28    48   1
    51    30    49   1
    52    31    50   1
@<TRIPOS>SUBSTRUCTURE
     1  MOL      1

