@<TRIPOS>MOLECULE
3oe5_ligand_026
    50    52
SMALL
GAST_HUCK
****
This file was generated by PARSER (from files_GN.cpp)

@<TRIPOS>ATOM
      1 C1         20.0208  -33.0442   13.0405 C.3         1 MOL       0.1170
      2 C2         21.2307  -33.2155   13.9766 C.3         1 MOL       0.1229
      3 C3         22.3968  -33.1846   12.9724 C.3         1 MOL       0.1499
      4 O4         22.0086  -32.2692   11.9351 O.3         1 MOL      -0.3460
      5 C5         20.5823  -32.0836   11.9618 C.3         1 MOL       0.1063
      6 C6         20.2776  -30.6869   12.2513 C.2         1 MOL      -0.0658
      7 S7         23.9942  -32.6140   13.6130 S.3         1 MOL      -0.0558
      8 O8         19.6281  -34.2797   12.4377 O.3         1 MOL      -0.3847
      9 O9         21.1915  -34.4068   14.7638 O.3         1 MOL      -0.3853
     10 C10        19.1816  -30.0644   11.7889 C.2         1 MOL      -0.0744
     11 C11        24.2513  -33.5867   15.0366 C.ar        1 MOL       0.0383
     12 C12        18.8129  -28.7201   12.1910 C.3         1 MOL       0.0473
     13 N13        19.7649  -27.7696   11.6991 N.am        1 MOL      -0.2765
     14 C14        20.7365  -27.1610   12.3767 C.2         1 MOL       0.2411
     15 C15        21.6288  -26.2675   11.7661 C.ar        1 MOL       0.2482
     16 C16        22.1285  -26.4565   10.4460 C.ar        1 MOL       0.3921
     17 C17        23.0197  -25.5246    9.8769 C.ar        1 MOL       0.3797
     18 C18        23.4311  -24.4037   10.6110 C.ar        1 MOL       0.1691
     19 C19        22.9606  -24.1691   11.9236 C.ar        1 MOL       0.2168
     20 C20        22.0721  -25.1207   12.4806 C.ar        1 MOL       0.1162
     21 N21        23.3310  -23.0475   12.6089 N.2         1 MOL      -0.1404
     22 O22        21.7897  -27.5341    9.6950 O.3         1 MOL      -0.1763
     23 O23        23.4511  -25.6704    8.5973 O.3         1 MOL      -0.1825
     24 O24        20.8555  -27.4007   13.5745 O.2         1 MOL      -0.3823
     25 O25        24.1529  -22.1667   12.1109 O.2         1 MOL      -0.4541
     26 O26        22.9191  -22.7817   13.7070 O.2         1 MOL      -0.4541
     27 C27        24.9088  -32.9880   16.1329 C.ar        1 MOL      -0.0217
     28 C28        25.1871  -33.7561   17.2780 C.ar        1 MOL       0.0039
     29 N29        24.8099  -35.0604   17.3251 N.ar        1 MOL      -0.3066
     30 C30        24.1807  -35.6739   16.2907 C.ar        1 MOL       0.0039
     31 C31        23.8946  -34.9516   15.1149 C.ar        1 MOL      -0.0217
     32 H1         19.1595  -32.6312   13.5748 H           1 MOL       0.0667
     33 H2         21.2919  -32.3587   14.6512 H           1 MOL       0.0659
     34 H3         22.5281  -34.1735   12.5202 H           1 MOL       0.0771
     35 H4         20.2065  -32.3482   10.9701 H           1 MOL       0.0748
     36 H5         20.8544  -30.2161   12.9104 H           1 MOL       0.0477
     37 H6         19.2722  -34.8364   13.1622 H           1 MOL       0.2102
     38 H7         21.2029  -35.1544   14.1292 H           1 MOL       0.2101
     39 H8         18.5605  -30.5550   11.1846 H           1 MOL       0.0470
     40 H9         18.6990  -28.6836   13.2784 H           1 MOL       0.0643
     41 H10        17.8444  -28.4568   11.7606 H           1 MOL       0.0643
     42 H11        19.6679  -27.5183   10.7665 H           1 MOL       0.1867
     43 H12        24.0633  -23.7393   10.1610 H           1 MOL       0.1086
     44 H13        21.7123  -24.9563   13.4269 H           1 MOL       0.1563
     45 H14        20.8891  -27.3095    9.3718 H           1 MOL       0.3540
     46 H15        23.8262  -26.5826    8.5435 H           1 MOL       0.3497
     47 H16        25.1913  -32.0089   16.1061 H           1 MOL       0.0660
     48 H17        25.6704  -33.3394   18.0753 H           1 MOL       0.0803
     49 H18        23.9146  -36.6571   16.3706 H           1 MOL       0.0803
     50 H19        23.4275  -35.4266   14.3378 H           1 MOL       0.0660
@<TRIPOS>BOND
     1     1     2   1
     2     1     5   1
     3     1     8   1
     4     2     3   1
     5     2     9   1
     6     3     4   1
     7     3     7   1
     8     4     5   1
     9     5     6   1
    10     6    10   2
    11     7    11   1
    12    10    12   1
    13    11    27  ar
    14    11    31  ar
    15    12    13   1
    16    13    14  am
    17    14    15   1
    18    14    24   2
    19    15    16  ar
    20    15    20  ar
    21    16    17  ar
    22    16    22   1
    23    17    18  ar
    24    17    23   1
    25    18    19  ar
    26    19    20  ar
    27    19    21   1
    28    21    25   2
    29    21    26   2
    30    27    28  ar
    31    28    29  ar
    32    29    30  ar
    33    30    31  ar
    34     1    32   1
    35     2    33   1
    36     3    34   1
    37     5    35   1
    38     6    36   1
    39     8    37   1
    40     9    38   1
    41    10    39   1
    42    12    40   1
    43    12    41   1
    44    13    42   1
    45    18    43   1
    46    20    44   1
    47    22    45   1
    48    23    46   1
    49    27    47   1
    50    28    48   1
    51    30    49   1
    52    31    50   1
@<TRIPOS>SUBSTRUCTURE
     1  MOL      1

