@<TRIPOS>MOLECULE
3oe5_ligand_020
    50    52
SMALL
GAST_HUCK
****
This file was generated by PARSER (from files_GN.cpp)

@<TRIPOS>ATOM
      1 C1         20.8285  -33.5937   13.0211 C.3         1 MOL       0.1170
      2 C2         21.8087  -34.0862   14.0949 C.3         1 MOL       0.1229
      3 C3         23.1746  -33.9945   13.3740 C.3         1 MOL       0.1499
      4 O4         23.0412  -32.9945   12.3423 O.3         1 MOL      -0.3460
      5 C5         21.6738  -32.5401   12.2638 C.3         1 MOL       0.1063
      6 C6         21.5728  -31.1837   12.8005 C.2         1 MOL      -0.0658
      7 S7         24.5134  -33.6252   14.5494 S.3         1 MOL      -0.0558
      8 O8         20.4252  -34.6155   12.1055 O.3         1 MOL      -0.3847
      9 O9         21.4947  -35.3845   14.5949 O.3         1 MOL      -0.3853
     10 C10        20.4433  -30.4540   12.7448 C.2         1 MOL      -0.0744
     11 C11        25.8578  -33.3536   13.4718 C.ar        1 MOL       0.0383
     12 C12        20.3361  -29.1162   13.2972 C.3         1 MOL       0.0473
     13 N13        21.1698  -28.1925   12.5805 N.am        1 MOL      -0.2765
     14 C14        20.7935  -27.0426   12.0431 C.2         1 MOL       0.2411
     15 C15        21.7502  -26.1825   11.5420 C.ar        1 MOL       0.2482
     16 C16        22.3223  -26.3758   10.2625 C.ar        1 MOL       0.3921
     17 C17        23.2260  -25.4244    9.7511 C.ar        1 MOL       0.3797
     18 C18        23.5907  -24.3049   10.5235 C.ar        1 MOL       0.1691
     19 C19        23.0643  -24.1023   11.8231 C.ar        1 MOL       0.2168
     20 C20        22.1368  -25.0600   12.3095 C.ar        1 MOL       0.1162
     21 N21        23.4116  -23.0113   12.5684 N.2         1 MOL      -0.1404
     22 O22        21.9871  -27.4395    9.4843 O.3         1 MOL      -0.1763
     23 O23        23.7377  -25.5638    8.5024 O.3         1 MOL      -0.1825
     24 O24        19.6355  -26.6394   12.1101 O.2         1 MOL      -0.3823
     25 O25        24.2519  -22.1080   12.1416 O.2         1 MOL      -0.4541
     26 O26        22.9582  -22.7930   13.6584 O.2         1 MOL      -0.4541
     27 C27        26.9730  -34.2234   13.4957 C.ar        1 MOL      -0.0217
     28 C28        28.0908  -33.9291   12.6932 C.ar        1 MOL       0.0039
     29 N29        28.0945  -32.8207   11.9086 N.ar        1 MOL      -0.3066
     30 C30        27.0456  -31.9603   11.8646 C.ar        1 MOL       0.0039
     31 C31        25.9082  -32.1987   12.6595 C.ar        1 MOL      -0.0217
     32 H1         19.9308  -33.1699   13.4793 H           1 MOL       0.0667
     33 H2         21.7829  -33.3849   14.9349 H           1 MOL       0.0659
     34 H3         23.3992  -34.9459   12.8790 H           1 MOL       0.0771
     35 H4         21.3844  -32.5128   11.2058 H           1 MOL       0.0748
     36 H5         22.3855  -30.7744   13.2091 H           1 MOL       0.0477
     37 H6         21.2497  -35.0705   11.8328 H           1 MOL       0.2102
     38 H7         21.5339  -35.9865   13.8208 H           1 MOL       0.2101
     39 H8         19.6319  -30.8539   12.3259 H           1 MOL       0.0470
     40 H9         20.6564  -29.1214   14.3428 H           1 MOL       0.0643
     41 H10        19.2821  -28.8154   13.2829 H           1 MOL       0.0643
     42 H11        22.1199  -28.4003   12.5462 H           1 MOL       0.1867
     43 H12        24.2428  -23.6274   10.1220 H           1 MOL       0.1086
     44 H13        21.7341  -24.9394   13.2446 H           1 MOL       0.1563
     45 H14        22.4016  -28.2155    9.9174 H           1 MOL       0.3540
     46 H15        24.2722  -26.3853    8.5346 H           1 MOL       0.3497
     47 H16        26.9868  -35.0499   14.1019 H           1 MOL       0.0660
     48 H17        28.9114  -34.5388   12.7010 H           1 MOL       0.0803
     49 H18        27.0905  -31.1322   11.2675 H           1 MOL       0.0803
     50 H19        25.1366  -31.5273   12.6610 H           1 MOL       0.0660
@<TRIPOS>BOND
     1     1     2   1
     2     1     5   1
     3     1     8   1
     4     2     3   1
     5     2     9   1
     6     3     4   1
     7     3     7   1
     8     4     5   1
     9     5     6   1
    10     6    10   2
    11     7    11   1
    12    10    12   1
    13    11    27  ar
    14    11    31  ar
    15    12    13   1
    16    13    14  am
    17    14    15   1
    18    14    24   2
    19    15    16  ar
    20    15    20  ar
    21    16    17  ar
    22    16    22   1
    23    17    18  ar
    24    17    23   1
    25    18    19  ar
    26    19    20  ar
    27    19    21   1
    28    21    25   2
    29    21    26   2
    30    27    28  ar
    31    28    29  ar
    32    29    30  ar
    33    30    31  ar
    34     1    32   1
    35     2    33   1
    36     3    34   1
    37     5    35   1
    38     6    36   1
    39     8    37   1
    40     9    38   1
    41    10    39   1
    42    12    40   1
    43    12    41   1
    44    13    42   1
    45    18    43   1
    46    20    44   1
    47    22    45   1
    48    23    46   1
    49    27    47   1
    50    28    48   1
    51    30    49   1
    52    31    50   1
@<TRIPOS>SUBSTRUCTURE
     1  MOL      1

