@<TRIPOS>MOLECULE
3oe5_ligand_044
    50    52
SMALL
GAST_HUCK
****
This file was generated by PARSER (from files_GN.cpp)

@<TRIPOS>ATOM
      1 C1         21.9146  -30.7715    4.7351 C.3         1 MOL       0.1170
      2 C2         20.9256  -31.0002    5.8831 C.3         1 MOL       0.1229
      3 C3         21.7540  -31.9081    6.8154 C.3         1 MOL       0.1499
      4 O4         23.1255  -31.5031    6.6851 O.3         1 MOL      -0.3460
      5 C5         23.2832  -30.7607    5.4628 C.3         1 MOL       0.1063
      6 C6         23.7842  -29.4136    5.7274 C.2         1 MOL      -0.0658
      7 S7         21.2018  -31.7975    8.5370 S.3         1 MOL      -0.0558
      8 O8         21.8339  -31.8630    3.8139 O.3         1 MOL      -0.3847
      9 O9         19.7010  -31.5963    5.4381 O.3         1 MOL      -0.3853
     10 C10        23.5283  -28.7369    6.8600 C.2         1 MOL      -0.0744
     11 C11        22.3582  -32.7111    9.4869 C.ar        1 MOL       0.0383
     12 C12        23.9385  -27.3597    7.0682 C.3         1 MOL       0.0473
     13 N13        23.6342  -26.8411    8.3720 N.am        1 MOL      -0.2765
     14 C14        22.4300  -26.6528    8.8952 C.2         1 MOL       0.2411
     15 C15        22.2917  -26.2083   10.2081 C.ar        1 MOL       0.2482
     16 C16        21.4507  -26.8927   11.1232 C.ar        1 MOL       0.3921
     17 C17        21.2360  -26.3761   12.4138 C.ar        1 MOL       0.3797
     18 C18        21.8364  -25.1648   12.7975 C.ar        1 MOL       0.1691
     19 C19        22.6982  -24.4624   11.9241 C.ar        1 MOL       0.2168
     20 C20        22.9332  -25.0216   10.6408 C.ar        1 MOL       0.1162
     21 N21        23.2425  -23.2645   12.3068 N.2         1 MOL      -0.1404
     22 O22        20.8300  -28.0541   10.7894 O.3         1 MOL      -0.1763
     23 O23        20.4418  -27.0259   13.2996 O.3         1 MOL      -0.1825
     24 O24        21.4244  -26.8989    8.2464 O.2         1 MOL      -0.3823
     25 O25        22.9770  -22.7069   13.4572 O.2         1 MOL      -0.4541
     26 O26        23.9902  -22.6361   11.6075 O.2         1 MOL      -0.4541
     27 C27        22.1786  -32.6719   10.8866 C.ar        1 MOL      -0.0217
     28 C28        23.0783  -33.3560   11.7235 C.ar        1 MOL       0.0039
     29 N29        24.1178  -34.0402   11.1839 N.ar        1 MOL      -0.3066
     30 C30        24.3202  -34.1122    9.8448 C.ar        1 MOL       0.0039
     31 C31        23.4351  -33.4657    8.9617 C.ar        1 MOL      -0.0217
     32 H1         21.6993  -29.8476    4.1920 H           1 MOL       0.0667
     33 H2         20.7039  -30.0454    6.3782 H           1 MOL       0.0659
     34 H3         21.6612  -32.9413    6.4774 H           1 MOL       0.0771
     35 H4         24.0251  -31.2889    4.8526 H           1 MOL       0.0748
     36 H5         24.3304  -28.9755    5.0222 H           1 MOL       0.0477
     37 H6         22.4596  -31.6444    3.0905 H           1 MOL       0.2102
     38 H7         19.5122  -32.3256    6.0675 H           1 MOL       0.2101
     39 H8         23.0184  -29.1873    7.5847 H           1 MOL       0.0470
     40 H9         23.4748  -26.7300    6.3046 H           1 MOL       0.0643
     41 H10        25.0215  -27.2973    6.9502 H           1 MOL       0.0643
     42 H11        24.3902  -26.6317    8.9356 H           1 MOL       0.1867
     43 H12        21.6392  -24.8044   13.7329 H           1 MOL       0.1086
     44 H13        23.5318  -24.5150    9.9808 H           1 MOL       0.1563
     45 H14        20.0460  -27.7606   10.2802 H           1 MOL       0.3540
     46 H15        20.8376  -27.9181   13.3873 H           1 MOL       0.3497
     47 H16        21.4065  -32.1499   11.3057 H           1 MOL       0.0660
     48 H17        22.9567  -33.3367   12.7383 H           1 MOL       0.0803
     49 H18        25.1168  -34.6367    9.4830 H           1 MOL       0.0803
     50 H19        23.6008  -33.5564    7.9597 H           1 MOL       0.0660
@<TRIPOS>BOND
     1     1     2   1
     2     1     5   1
     3     1     8   1
     4     2     3   1
     5     2     9   1
     6     3     4   1
     7     3     7   1
     8     4     5   1
     9     5     6   1
    10     6    10   2
    11     7    11   1
    12    10    12   1
    13    11    27  ar
    14    11    31  ar
    15    12    13   1
    16    13    14  am
    17    14    15   1
    18    14    24   2
    19    15    16  ar
    20    15    20  ar
    21    16    17  ar
    22    16    22   1
    23    17    18  ar
    24    17    23   1
    25    18    19  ar
    26    19    20  ar
    27    19    21   1
    28    21    25   2
    29    21    26   2
    30    27    28  ar
    31    28    29  ar
    32    29    30  ar
    33    30    31  ar
    34     1    32   1
    35     2    33   1
    36     3    34   1
    37     5    35   1
    38     6    36   1
    39     8    37   1
    40     9    38   1
    41    10    39   1
    42    12    40   1
    43    12    41   1
    44    13    42   1
    45    18    43   1
    46    20    44   1
    47    22    45   1
    48    23    46   1
    49    27    47   1
    50    28    48   1
    51    30    49   1
    52    31    50   1
@<TRIPOS>SUBSTRUCTURE
     1  MOL      1

