@<TRIPOS>MOLECULE
3oe5_ligand_076
    50    52
SMALL
GAST_HUCK
****
This file was generated by PARSER (from files_GN.cpp)

@<TRIPOS>ATOM
      1 C1         22.7696  -32.4714   12.3025 C.3         1 MOL       0.1170
      2 C2         23.5228  -33.2931   11.2526 C.3         1 MOL       0.1229
      3 C3         22.5268  -34.4397   10.9518 C.3         1 MOL       0.1499
      4 O4         21.2134  -33.9456   11.2692 O.3         1 MOL      -0.3460
      5 C5         21.3098  -32.6117   11.8146 C.3         1 MOL       0.1063
      6 C6         20.9294  -31.5471   10.8898 C.2         1 MOL      -0.0658
      7 S7         22.4670  -35.0721    9.2513 S.3         1 MOL      -0.0558
      8 O8         22.8992  -33.0326   13.6145 O.3         1 MOL      -0.3847
      9 O9         24.7986  -33.7546   11.7079 O.3         1 MOL      -0.3853
     10 C10        20.5497  -31.7108    9.6116 C.2         1 MOL      -0.0744
     11 C11        24.1623  -35.1095    8.8589 C.ar        1 MOL       0.0383
     12 C12        20.1733  -30.6031    8.7492 C.3         1 MOL       0.0473
     13 N13        21.3253  -29.8896    8.2869 N.am        1 MOL      -0.2765
     14 C14        22.0071  -30.1000    7.1651 C.2         1 MOL       0.2411
     15 C15        23.1108  -29.3032    6.8119 C.ar        1 MOL       0.2482
     16 C16        23.2560  -27.9594    7.2510 C.ar        1 MOL       0.3921
     17 C17        24.3759  -27.1923    6.8786 C.ar        1 MOL       0.3797
     18 C18        25.3702  -27.7509    6.0563 C.ar        1 MOL       0.1691
     19 C19        25.2652  -29.0773    5.5761 C.ar        1 MOL       0.2168
     20 C20        24.1252  -29.8288    5.9659 C.ar        1 MOL       0.1162
     21 N21        26.2299  -29.5995    4.7636 N.2         1 MOL      -0.1404
     22 O22        22.2826  -27.3187    7.9405 O.3         1 MOL      -0.1763
     23 O23        24.4642  -25.8958    7.2692 O.3         1 MOL      -0.1825
     24 O24        21.6844  -31.0418    6.4483 O.2         1 MOL      -0.3823
     25 O25        27.2856  -28.9199    4.4003 O.2         1 MOL      -0.4541
     26 O26        26.1712  -30.7162    4.3195 O.2         1 MOL      -0.4541
     27 C27        25.0132  -36.1185    9.3583 C.ar        1 MOL      -0.0217
     28 C28        26.3852  -36.0607    9.0548 C.ar        1 MOL       0.0039
     29 N29        26.8713  -35.0486    8.2887 N.ar        1 MOL      -0.3066
     30 C30        26.0772  -34.0742    7.7817 C.ar        1 MOL       0.0039
     31 C31        24.6962  -34.0898    8.0405 C.ar        1 MOL      -0.0217
     32 H1         23.1199  -31.4340   12.3323 H           1 MOL       0.0667
     33 H2         23.6756  -32.6740   10.3641 H           1 MOL       0.0659
     34 H3         22.7331  -35.2782   11.6188 H           1 MOL       0.0771
     35 H4         20.6262  -32.5463   12.6659 H           1 MOL       0.0748
     36 H5         20.9492  -30.6183   11.2536 H           1 MOL       0.0477
     37 H6         23.8505  -32.9334   13.8320 H           1 MOL       0.2102
     38 H7         24.6082  -34.3170   12.4860 H           1 MOL       0.2101
     39 H8         20.4969  -32.6283    9.2322 H           1 MOL       0.0470
     40 H9         19.5321  -29.9047    9.2937 H           1 MOL       0.0643
     41 H10        19.5779  -30.9750    7.9082 H           1 MOL       0.0643
     42 H11        21.6483  -29.1867    8.8708 H           1 MOL       0.1867
     43 H12        26.1654  -27.1653    5.7902 H           1 MOL       0.1086
     44 H13        24.0445  -30.7892    5.6264 H           1 MOL       0.1563
     45 H14        22.7361  -26.9059    8.7202 H           1 MOL       0.3540
     46 H15        25.4208  -25.6773    7.2749 H           1 MOL       0.3497
     47 H16        24.6487  -36.8781    9.9314 H           1 MOL       0.0660
     48 H17        27.0254  -36.7742    9.4122 H           1 MOL       0.0803
     49 H18        26.4845  -33.3383    7.2060 H           1 MOL       0.0803
     50 H19        24.0943  -33.3575    7.6520 H           1 MOL       0.0660
@<TRIPOS>BOND
     1     1     2   1
     2     1     5   1
     3     1     8   1
     4     2     3   1
     5     2     9   1
     6     3     4   1
     7     3     7   1
     8     4     5   1
     9     5     6   1
    10     6    10   2
    11     7    11   1
    12    10    12   1
    13    11    27  ar
    14    11    31  ar
    15    12    13   1
    16    13    14  am
    17    14    15   1
    18    14    24   2
    19    15    16  ar
    20    15    20  ar
    21    16    17  ar
    22    16    22   1
    23    17    18  ar
    24    17    23   1
    25    18    19  ar
    26    19    20  ar
    27    19    21   1
    28    21    25   2
    29    21    26   2
    30    27    28  ar
    31    28    29  ar
    32    29    30  ar
    33    30    31  ar
    34     1    32   1
    35     2    33   1
    36     3    34   1
    37     5    35   1
    38     6    36   1
    39     8    37   1
    40     9    38   1
    41    10    39   1
    42    12    40   1
    43    12    41   1
    44    13    42   1
    45    18    43   1
    46    20    44   1
    47    22    45   1
    48    23    46   1
    49    27    47   1
    50    28    48   1
    51    30    49   1
    52    31    50   1
@<TRIPOS>SUBSTRUCTURE
     1  MOL      1

