@<TRIPOS>MOLECULE
3oe5_ligand_032
    50    52
SMALL
GAST_HUCK
****
This file was generated by PARSER (from files_GN.cpp)

@<TRIPOS>ATOM
      1 C1         20.3399  -31.5026    6.2114 C.3         1 MOL       0.1170
      2 C2         19.9962  -32.8866    5.6593 C.3         1 MOL       0.1229
      3 C3         21.3961  -33.4529    5.3145 C.3         1 MOL       0.1499
      4 O4         22.2448  -32.3186    5.0690 O.3         1 MOL      -0.3460
      5 C5         21.5413  -31.0916    5.3343 C.3         1 MOL       0.1063
      6 C6         22.4709  -30.0812    5.8375 C.2         1 MOL      -0.0658
      7 S7         22.2248  -34.4033    6.6208 S.3         1 MOL      -0.0558
      8 O8         19.2289  -30.5964    6.0999 O.3         1 MOL      -0.3847
      9 O9         19.1740  -32.7693    4.4908 O.3         1 MOL      -0.3853
     10 C10        22.2985  -29.3183    6.9302 C.2         1 MOL      -0.0744
     11 C11        20.9619  -35.5414    7.0072 C.ar        1 MOL       0.0383
     12 C12        23.2739  -28.3215    7.3436 C.3         1 MOL       0.0473
     13 N13        22.9570  -27.7787    8.6366 N.am        1 MOL      -0.2765
     14 C14        23.0494  -26.5173    9.0394 C.2         1 MOL       0.2411
     15 C15        22.6439  -26.0974   10.3143 C.ar        1 MOL       0.2482
     16 C16        21.7135  -26.8250   11.1056 C.ar        1 MOL       0.3921
     17 C17        21.2836  -26.3280   12.3529 C.ar        1 MOL       0.3797
     18 C18        21.7579  -25.0962   12.8277 C.ar        1 MOL       0.1691
     19 C19        22.6954  -24.3392   12.0912 C.ar        1 MOL       0.2168
     20 C20        23.1234  -24.8666   10.8415 C.ar        1 MOL       0.1162
     21 N21        23.1390  -23.1362   12.5538 N.2         1 MOL      -0.1404
     22 O22        21.1291  -27.9704   10.6738 O.3         1 MOL      -0.1763
     23 O23        20.3871  -27.0111   13.1112 O.3         1 MOL      -0.1825
     24 O24        23.5050  -25.6915    8.2538 O.2         1 MOL      -0.3823
     25 O25        22.7209  -22.6147   13.6777 O.2         1 MOL      -0.4541
     26 O26        23.9476  -22.4654   11.9646 O.2         1 MOL      -0.4541
     27 C27        20.4047  -35.5178    8.2992 C.ar        1 MOL      -0.0217
     28 C28        19.3418  -36.3859    8.6050 C.ar        1 MOL       0.0039
     29 N29        18.8846  -37.2498    7.6622 N.ar        1 MOL      -0.3066
     30 C30        19.4277  -37.3283    6.4210 C.ar        1 MOL       0.0039
     31 C31        20.4923  -36.4790    6.0669 C.ar        1 MOL      -0.0217
     32 H1         20.6306  -31.6005    7.2613 H           1 MOL       0.0667
     33 H2         19.4478  -33.4828    6.3888 H           1 MOL       0.0659
     34 H3         21.3560  -34.0685    4.4230 H           1 MOL       0.0771
     35 H4         21.1684  -30.7269    4.3663 H           1 MOL       0.0748
     36 H5         23.2793  -29.9280    5.2837 H           1 MOL       0.0477
     37 H6         19.4662  -29.8335    6.6857 H           1 MOL       0.2102
     38 H7         19.2297  -33.6638    4.0535 H           1 MOL       0.2101
     39 H8         21.4884  -29.4227    7.4840 H           1 MOL       0.0470
     40 H9         23.3227  -27.5567    6.5674 H           1 MOL       0.0643
     41 H10        24.2591  -28.7846    7.4260 H           1 MOL       0.0643
     42 H11        22.6811  -28.4265    9.3019 H           1 MOL       0.1867
     43 H12        21.4108  -24.7578   13.7297 H           1 MOL       0.1086
     44 H13        23.7876  -24.3124   10.2945 H           1 MOL       0.1563
     45 H14        20.3387  -27.6623   10.1823 H           1 MOL       0.3540
     46 H15        20.8477  -27.8370   13.3808 H           1 MOL       0.3497
     47 H16        20.7306  -34.8488    9.0013 H           1 MOL       0.0660
     48 H17        18.8926  -36.3485    9.5203 H           1 MOL       0.0803
     49 H18        19.0443  -37.9880    5.7459 H           1 MOL       0.0803
     50 H19        20.8908  -36.5297    5.1215 H           1 MOL       0.0660
@<TRIPOS>BOND
     1     1     2   1
     2     1     5   1
     3     1     8   1
     4     2     3   1
     5     2     9   1
     6     3     4   1
     7     3     7   1
     8     4     5   1
     9     5     6   1
    10     6    10   2
    11     7    11   1
    12    10    12   1
    13    11    27  ar
    14    11    31  ar
    15    12    13   1
    16    13    14  am
    17    14    15   1
    18    14    24   2
    19    15    16  ar
    20    15    20  ar
    21    16    17  ar
    22    16    22   1
    23    17    18  ar
    24    17    23   1
    25    18    19  ar
    26    19    20  ar
    27    19    21   1
    28    21    25   2
    29    21    26   2
    30    27    28  ar
    31    28    29  ar
    32    29    30  ar
    33    30    31  ar
    34     1    32   1
    35     2    33   1
    36     3    34   1
    37     5    35   1
    38     6    36   1
    39     8    37   1
    40     9    38   1
    41    10    39   1
    42    12    40   1
    43    12    41   1
    44    13    42   1
    45    18    43   1
    46    20    44   1
    47    22    45   1
    48    23    46   1
    49    27    47   1
    50    28    48   1
    51    30    49   1
    52    31    50   1
@<TRIPOS>SUBSTRUCTURE
     1  MOL      1

