@<TRIPOS>MOLECULE
3oe5_ligand_030
    50    52
SMALL
GAST_HUCK
****
This file was generated by PARSER (from files_GN.cpp)

@<TRIPOS>ATOM
      1 C1         21.8911  -30.4791    7.0826 C.3         1 MOL       0.1170
      2 C2         20.9531  -30.9655    5.9571 C.3         1 MOL       0.1229
      3 C3         20.7401  -32.4462    6.3203 C.3         1 MOL       0.1499
      4 O4         20.6261  -32.4196    7.7425 O.3         1 MOL      -0.3460
      5 C5         21.6315  -31.5151    8.2167 C.3         1 MOL       0.1063
      6 C6         21.2299  -31.0116    9.5214 C.2         1 MOL      -0.0658
      7 S7         19.2524  -33.2007    5.6084 S.3         1 MOL      -0.0558
      8 O8         23.2660  -30.4689    6.6711 O.3         1 MOL      -0.3847
      9 O9         21.4948  -30.8251    4.6396 O.3         1 MOL      -0.3853
     10 C10        20.3375  -30.0183    9.7061 C.2         1 MOL      -0.0744
     11 C11        19.6907  -34.8783    5.8323 C.ar        1 MOL       0.0383
     12 C12        19.9683  -29.5311   11.0267 C.3         1 MOL       0.0473
     13 N13        20.2013  -28.1155   11.1207 N.am        1 MOL      -0.2765
     14 C14        21.2049  -27.4931   11.7370 C.2         1 MOL       0.2411
     15 C15        21.2560  -26.0894   11.8791 C.ar        1 MOL       0.2482
     16 C16        20.1236  -25.2428   11.7235 C.ar        1 MOL       0.3921
     17 C17        20.2245  -23.8503   11.9581 C.ar        1 MOL       0.3797
     18 C18        21.4416  -23.3022   12.3892 C.ar        1 MOL       0.1691
     19 C19        22.5971  -24.0974   12.5579 C.ar        1 MOL       0.2168
     20 C20        22.4828  -25.4774   12.2481 C.ar        1 MOL       0.1162
     21 N21        23.7575  -23.5618   13.0242 N.2         1 MOL      -0.1404
     22 O22        18.8986  -25.7441   11.4211 O.3         1 MOL      -0.1763
     23 O23        19.1468  -23.0381   11.7825 O.3         1 MOL      -0.1825
     24 O24        22.1234  -28.1734   12.1730 O.2         1 MOL      -0.3823
     25 O25        23.8488  -22.3153   13.4005 O.2         1 MOL      -0.4541
     26 O26        24.7534  -24.2190   13.2105 O.2         1 MOL      -0.4541
     27 C27        19.7533  -35.7317    4.7095 C.ar        1 MOL      -0.0217
     28 C28        20.1178  -37.0797    4.8864 C.ar        1 MOL       0.0039
     29 N29        20.4144  -37.5404    6.1269 N.ar        1 MOL      -0.3066
     30 C30        20.3685  -36.7503    7.2306 C.ar        1 MOL       0.0039
     31 C31        19.9876  -35.3986    7.1095 C.ar        1 MOL      -0.0217
     32 H1         21.6267  -29.4582    7.3783 H           1 MOL       0.0667
     33 H2         20.0045  -30.4192    6.0336 H           1 MOL       0.0659
     34 H3         21.6276  -33.0194    6.0219 H           1 MOL       0.0771
     35 H4         22.5427  -32.1029    8.3527 H           1 MOL       0.0748
     36 H5         21.5935  -31.4716   10.3259 H           1 MOL       0.0477
     37 H6         23.4800  -31.3844    6.3846 H           1 MOL       0.2102
     38 H7         22.0527  -30.0141    4.6660 H           1 MOL       0.2101
     39 H8         19.9245  -29.5900    8.9077 H           1 MOL       0.0470
     40 H9         20.4889  -30.0730   11.8190 H           1 MOL       0.0643
     41 H10        18.9032  -29.7150   11.1915 H           1 MOL       0.0643
     42 H11        19.5420  -27.5543   10.7002 H           1 MOL       0.1867
     43 H12        21.4778  -22.2979   12.5729 H           1 MOL       0.1086
     44 H13        23.3238  -26.0533   12.3186 H           1 MOL       0.1563
     45 H14        18.2878  -24.9967   11.2555 H           1 MOL       0.3540
     46 H15        19.2035  -22.3346   12.4682 H           1 MOL       0.3497
     47 H16        19.5329  -35.3871    3.7739 H           1 MOL       0.0660
     48 H17        20.1501  -37.7174    4.0884 H           1 MOL       0.0803
     49 H18        20.5966  -37.1482    8.1432 H           1 MOL       0.0803
     50 H19        19.9290  -34.8107    7.9447 H           1 MOL       0.0660
@<TRIPOS>BOND
     1     1     2   1
     2     1     5   1
     3     1     8   1
     4     2     3   1
     5     2     9   1
     6     3     4   1
     7     3     7   1
     8     4     5   1
     9     5     6   1
    10     6    10   2
    11     7    11   1
    12    10    12   1
    13    11    27  ar
    14    11    31  ar
    15    12    13   1
    16    13    14  am
    17    14    15   1
    18    14    24   2
    19    15    16  ar
    20    15    20  ar
    21    16    17  ar
    22    16    22   1
    23    17    18  ar
    24    17    23   1
    25    18    19  ar
    26    19    20  ar
    27    19    21   1
    28    21    25   2
    29    21    26   2
    30    27    28  ar
    31    28    29  ar
    32    29    30  ar
    33    30    31  ar
    34     1    32   1
    35     2    33   1
    36     3    34   1
    37     5    35   1
    38     6    36   1
    39     8    37   1
    40     9    38   1
    41    10    39   1
    42    12    40   1
    43    12    41   1
    44    13    42   1
    45    18    43   1
    46    20    44   1
    47    22    45   1
    48    23    46   1
    49    27    47   1
    50    28    48   1
    51    30    49   1
    52    31    50   1
@<TRIPOS>SUBSTRUCTURE
     1  MOL      1

