@<TRIPOS>MOLECULE
3oe5_ligand_009
    50    52
SMALL
GAST_HUCK
****
This file was generated by PARSER (from files_GN.cpp)

@<TRIPOS>ATOM
      1 C1         20.5771  -29.9392   13.3297 C.3         1 MOL       0.1170
      2 C2         19.4511  -30.9743   13.0891 C.3         1 MOL       0.1229
      3 C3         18.1970  -30.1135   12.8697 C.3         1 MOL       0.1499
      4 O4         18.7015  -28.8965   12.2998 O.3         1 MOL      -0.3460
      5 C5         19.9296  -28.5703   12.9686 C.3         1 MOL       0.1063
      6 C6         20.6438  -27.5987   12.1459 C.2         1 MOL      -0.0658
      7 S7         17.0495  -30.8893   11.6989 S.3         1 MOL      -0.0558
      8 O8         21.0609  -29.9280   14.6786 O.3         1 MOL      -0.3847
      9 O9         19.2946  -31.9294   14.1407 O.3         1 MOL      -0.3853
     10 C10        21.9386  -27.6337   11.7649 C.2         1 MOL      -0.0744
     11 C11        15.5212  -30.6934   12.5178 C.ar        1 MOL       0.0383
     12 C12        22.5470  -26.6810   10.8464 C.3         1 MOL       0.0473
     13 N13        22.9300  -27.3773    9.6542 N.am        1 MOL      -0.2765
     14 C14        23.3093  -26.8338    8.5038 C.2         1 MOL       0.2411
     15 C15        23.5357  -27.6313    7.3765 C.ar        1 MOL       0.2482
     16 C16        22.7609  -28.7905    7.1075 C.ar        1 MOL       0.3921
     17 C17        23.0405  -29.5913    5.9848 C.ar        1 MOL       0.3797
     18 C18        24.0861  -29.2470    5.1129 C.ar        1 MOL       0.1691
     19 C19        24.8618  -28.0837    5.3195 C.ar        1 MOL       0.2168
     20 C20        24.5598  -27.2888    6.4551 C.ar        1 MOL       0.1162
     21 N21        25.8679  -27.7509    4.4568 N.2         1 MOL      -0.1404
     22 O22        21.7161  -29.1540    7.9034 O.3         1 MOL      -0.1763
     23 O23        22.2989  -30.6970    5.7316 O.3         1 MOL      -0.1825
     24 O24        23.5152  -25.6272    8.4506 O.2         1 MOL      -0.3823
     25 O25        26.1623  -28.4772    3.4129 O.2         1 MOL      -0.4541
     26 O26        26.5514  -26.7732    4.5979 O.2         1 MOL      -0.4541
     27 C27        14.7033  -31.8328   12.6849 C.ar        1 MOL      -0.0217
     28 C28        13.4359  -31.6930   13.2766 C.ar        1 MOL       0.0039
     29 N29        13.0072  -30.4654   13.6687 N.ar        1 MOL      -0.3066
     30 C30        13.7630  -29.3458   13.5216 C.ar        1 MOL       0.0039
     31 C31        15.0425  -29.4347   12.9390 C.ar        1 MOL      -0.0217
     32 H1         21.4263  -30.1896   12.6728 H           1 MOL       0.0667
     33 H2         19.6958  -31.5344   12.1763 H           1 MOL       0.0659
     34 H3         17.7136  -29.9167   13.8306 H           1 MOL       0.0771
     35 H4         19.6612  -28.0593   13.8889 H           1 MOL       0.0748
     36 H5         20.1048  -26.8057   11.8650 H           1 MOL       0.0477
     37 H6         21.3305  -30.8544   14.8616 H           1 MOL       0.2102
     38 H7         19.0941  -31.4025   14.9393 H           1 MOL       0.2101
     39 H8         22.5192  -28.3689   12.1047 H           1 MOL       0.0470
     40 H9         23.4318  -26.2458   11.3184 H           1 MOL       0.0643
     41 H10        21.8557  -25.8762   10.5878 H           1 MOL       0.0643
     42 H11        22.8584  -28.3514    9.6706 H           1 MOL       0.1867
     43 H12        24.2704  -29.8580    4.3158 H           1 MOL       0.1086
     44 H13        25.1251  -26.4545    6.6363 H           1 MOL       0.1563
     45 H14        20.9214  -29.1490    7.3213 H           1 MOL       0.3540
     46 H15        22.8532  -31.4474    6.0450 H           1 MOL       0.3497
     47 H16        15.0175  -32.7571   12.3732 H           1 MOL       0.0660
     48 H17        12.8331  -32.5043   13.4045 H           1 MOL       0.0803
     49 H18        13.3967  -28.4418   13.8298 H           1 MOL       0.0803
     50 H19        15.6043  -28.5893   12.8229 H           1 MOL       0.0660
@<TRIPOS>BOND
     1     1     2   1
     2     1     5   1
     3     1     8   1
     4     2     3   1
     5     2     9   1
     6     3     4   1
     7     3     7   1
     8     4     5   1
     9     5     6   1
    10     6    10   2
    11     7    11   1
    12    10    12   1
    13    11    27  ar
    14    11    31  ar
    15    12    13   1
    16    13    14  am
    17    14    15   1
    18    14    24   2
    19    15    16  ar
    20    15    20  ar
    21    16    17  ar
    22    16    22   1
    23    17    18  ar
    24    17    23   1
    25    18    19  ar
    26    19    20  ar
    27    19    21   1
    28    21    25   2
    29    21    26   2
    30    27    28  ar
    31    28    29  ar
    32    29    30  ar
    33    30    31  ar
    34     1    32   1
    35     2    33   1
    36     3    34   1
    37     5    35   1
    38     6    36   1
    39     8    37   1
    40     9    38   1
    41    10    39   1
    42    12    40   1
    43    12    41   1
    44    13    42   1
    45    18    43   1
    46    20    44   1
    47    22    45   1
    48    23    46   1
    49    27    47   1
    50    28    48   1
    51    30    49   1
    52    31    50   1
@<TRIPOS>SUBSTRUCTURE
     1  MOL      1

