@<TRIPOS>MOLECULE
3oe5_ligand_081
    50    52
SMALL
GAST_HUCK
****
This file was generated by PARSER (from files_GN.cpp)

@<TRIPOS>ATOM
      1 C1         25.8885  -28.1801    4.1691 C.3         1 MOL       0.1170
      2 C2         26.6851  -28.9127    3.0767 C.3         1 MOL       0.1229
      3 C3         27.8202  -29.5380    3.8991 C.3         1 MOL       0.1499
      4 O4         27.1452  -30.0445    5.0619 O.3         1 MOL      -0.3460
      5 C5         26.2127  -29.0136    5.4450 C.3         1 MOL       0.1063
      6 C6         25.0417  -29.5626    6.1129 C.2         1 MOL      -0.0658
      7 S7         28.6943  -30.8581    3.0159 S.3         1 MOL      -0.0558
      8 O8         26.3026  -26.8209    4.3179 O.3         1 MOL      -0.3847
      9 O9         27.1520  -28.0762    2.0209 O.3         1 MOL      -0.3853
     10 C10        24.1373  -30.3517    5.5019 C.2         1 MOL      -0.0744
     11 C11        30.1601  -30.8007    3.9609 C.ar        1 MOL       0.0383
     12 C12        22.8043  -30.6497    6.0080 C.3         1 MOL       0.0473
     13 N13        22.3600  -29.9895    7.2066 N.am        1 MOL      -0.2765
     14 C14        22.1968  -28.6751    7.3681 C.2         1 MOL       0.2411
     15 C15        21.8290  -28.1572    8.6028 C.ar        1 MOL       0.2482
     16 C16        22.4033  -26.9658    9.1209 C.ar        1 MOL       0.3921
     17 C17        22.0782  -26.5266   10.4233 C.ar        1 MOL       0.3797
     18 C18        21.1297  -27.2264   11.1922 C.ar        1 MOL       0.1691
     19 C19        20.4790  -28.3756   10.6820 C.ar        1 MOL       0.2168
     20 C20        20.8671  -28.8337    9.3937 C.ar        1 MOL       0.1162
     21 N21        19.5045  -29.0083   11.4009 N.2         1 MOL      -0.1404
     22 O22        23.2921  -26.2310    8.3914 O.3         1 MOL      -0.1763
     23 O23        22.6407  -25.4125   10.9561 O.3         1 MOL      -0.1825
     24 O24        22.4579  -27.9083    6.4440 O.2         1 MOL      -0.3823
     25 O25        19.1230  -28.5912   12.5774 O.2         1 MOL      -0.4541
     26 O26        18.9088  -29.9709   10.9929 O.2         1 MOL      -0.4541
     27 C27        31.1424  -29.8211    3.6955 C.ar        1 MOL      -0.0217
     28 C28        32.3096  -29.7903    4.4766 C.ar        1 MOL       0.0039
     29 N29        32.4895  -30.7058    5.4616 N.ar        1 MOL      -0.3066
     30 C30        31.5743  -31.6730    5.7363 C.ar        1 MOL       0.0039
     31 C31        30.3821  -31.7423    4.9881 C.ar        1 MOL      -0.0217
     32 H1         24.8284  -28.1688    3.9238 H           1 MOL       0.0667
     33 H2         26.0678  -29.7038    2.6442 H           1 MOL       0.0659
     34 H3         28.5314  -28.7508    4.1820 H           1 MOL       0.0771
     35 H4         26.7353  -28.3700    6.1727 H           1 MOL       0.0748
     36 H5         24.8748  -29.2710    7.0573 H           1 MOL       0.0477
     37 H6         27.2539  -26.8464    4.5599 H           1 MOL       0.2102
     38 H7         27.7243  -27.4134    2.4562 H           1 MOL       0.2101
     39 H8         24.3546  -30.6934    4.5997 H           1 MOL       0.0470
     40 H9         22.7457  -31.7269    6.1862 H           1 MOL       0.0643
     41 H10        22.0812  -30.4166    5.2161 H           1 MOL       0.0643
     42 H11        22.1652  -30.5539    7.9687 H           1 MOL       0.1867
     43 H12        20.9016  -26.8752   12.1301 H           1 MOL       0.1086
     44 H13        20.4069  -29.6658    9.0112 H           1 MOL       0.1563
     45 H14        24.1263  -26.2510    8.9135 H           1 MOL       0.3540
     46 H15        23.5381  -25.3321   10.5504 H           1 MOL       0.3497
     47 H16        31.0049  -29.1301    2.9540 H           1 MOL       0.0660
     48 H17        33.0237  -29.0779    4.3111 H           1 MOL       0.0803
     49 H18        31.7551  -32.3394    6.4880 H           1 MOL       0.0803
     50 H19        29.6916  -32.4682    5.2009 H           1 MOL       0.0660
@<TRIPOS>BOND
     1     1     2   1
     2     1     5   1
     3     1     8   1
     4     2     3   1
     5     2     9   1
     6     3     4   1
     7     3     7   1
     8     4     5   1
     9     5     6   1
    10     6    10   2
    11     7    11   1
    12    10    12   1
    13    11    27  ar
    14    11    31  ar
    15    12    13   1
    16    13    14  am
    17    14    15   1
    18    14    24   2
    19    15    16  ar
    20    15    20  ar
    21    16    17  ar
    22    16    22   1
    23    17    18  ar
    24    17    23   1
    25    18    19  ar
    26    19    20  ar
    27    19    21   1
    28    21    25   2
    29    21    26   2
    30    27    28  ar
    31    28    29  ar
    32    29    30  ar
    33    30    31  ar
    34     1    32   1
    35     2    33   1
    36     3    34   1
    37     5    35   1
    38     6    36   1
    39     8    37   1
    40     9    38   1
    41    10    39   1
    42    12    40   1
    43    12    41   1
    44    13    42   1
    45    18    43   1
    46    20    44   1
    47    22    45   1
    48    23    46   1
    49    27    47   1
    50    28    48   1
    51    30    49   1
    52    31    50   1
@<TRIPOS>SUBSTRUCTURE
     1  MOL      1

