@<TRIPOS>MOLECULE
3oe5_ligand_064
    50    52
SMALL
GAST_HUCK
****
This file was generated by PARSER (from files_GN.cpp)

@<TRIPOS>ATOM
      1 C1         17.7035  -31.7415   12.5286 C.3         1 MOL       0.1170
      2 C2         16.7256  -30.8179   11.7945 C.3         1 MOL       0.1229
      3 C3         15.9095  -30.2407   12.9668 C.3         1 MOL       0.1499
      4 O4         16.8507  -30.0359   14.0277 O.3         1 MOL      -0.3460
      5 C5         17.9282  -30.9784   13.8617 C.3         1 MOL       0.1063
      6 C6         19.2392  -30.3362   13.9164 C.2         1 MOL      -0.0658
      7 S7         15.1488  -28.6620   12.5200 S.3         1 MOL      -0.0558
      8 O8         17.1233  -33.0235   12.7714 O.3         1 MOL      -0.3847
      9 O9         15.9261  -31.4603   10.8010 O.3         1 MOL      -0.3853
     10 C10        19.5328  -29.1584   13.3357 C.2         1 MOL      -0.0744
     11 C11        13.7146  -28.5351   13.5053 C.ar        1 MOL       0.0383
     12 C12        20.8883  -28.6545   13.1604 C.3         1 MOL       0.0473
     13 N13        21.4030  -28.5131   11.8237 N.am        1 MOL      -0.2765
     14 C14        20.8245  -28.6683   10.6358 C.2         1 MOL       0.2411
     15 C15        21.5468  -28.4724    9.4545 C.ar        1 MOL       0.2482
     16 C16        22.4320  -27.3803    9.2702 C.ar        1 MOL       0.3921
     17 C17        23.1204  -27.2209    8.0523 C.ar        1 MOL       0.3797
     18 C18        22.9641  -28.1639    7.0198 C.ar        1 MOL       0.1691
     19 C19        22.1053  -29.2760    7.1658 C.ar        1 MOL       0.2168
     20 C20        21.3945  -29.3969    8.3849 C.ar        1 MOL       0.1162
     21 N21        21.9619  -30.1882    6.1590 N.2         1 MOL      -0.1404
     22 O22        22.5831  -26.4296   10.2361 O.3         1 MOL      -0.1763
     23 O23        23.8822  -26.1243    7.8193 O.3         1 MOL      -0.1825
     24 O24        19.6564  -29.0304   10.5529 O.2         1 MOL      -0.3823
     25 O25        22.6033  -30.0883    5.0258 O.2         1 MOL      -0.4541
     26 O26        21.2378  -31.1457    6.2469 O.2         1 MOL      -0.4541
     27 C27        12.7326  -27.6174   13.0713 C.ar        1 MOL      -0.0217
     28 C28        11.5630  -27.4511   13.8223 C.ar        1 MOL       0.0039
     29 N29        11.3722  -28.1774   14.9530 N.ar        1 MOL      -0.3066
     30 C30        12.2931  -29.0631   15.4078 C.ar        1 MOL       0.0039
     31 C31        13.4985  -29.2546   14.7010 C.ar        1 MOL      -0.0217
     32 H1         18.6156  -31.8858   11.9404 H           1 MOL       0.0667
     33 H2         17.2991  -30.0260   11.2982 H           1 MOL       0.0659
     34 H3         15.1403  -30.9552   13.2817 H           1 MOL       0.0771
     35 H4         17.8615  -31.6879   14.6943 H           1 MOL       0.0748
     36 H5         19.9831  -30.8769   14.3017 H           1 MOL       0.0477
     37 H6         17.7966  -33.5151   13.2904 H           1 MOL       0.2102
     38 H7         15.3820  -32.1269   11.2769 H           1 MOL       0.2101
     39 H8         18.7954  -28.6049   12.9782 H           1 MOL       0.0470
     40 H9         21.6067  -29.2838   13.6962 H           1 MOL       0.0643
     41 H10        20.9322  -27.6660   13.6214 H           1 MOL       0.0643
     42 H11        22.3478  -28.2787   11.7915 H           1 MOL       0.1867
     43 H12        23.4750  -28.0150    6.1484 H           1 MOL       0.1086
     44 H13        20.7676  -30.1959    8.5065 H           1 MOL       0.1563
     45 H14        23.5419  -26.2356   10.2788 H           1 MOL       0.3540
     46 H15        24.5810  -26.1420    8.5076 H           1 MOL       0.3497
     47 H16        12.8558  -27.0676   12.2164 H           1 MOL       0.0660
     48 H17        10.8498  -26.7855   13.5305 H           1 MOL       0.0803
     49 H18        12.1231  -29.5753   16.2745 H           1 MOL       0.0803
     50 H19        14.1967  -29.9054   15.0613 H           1 MOL       0.0660
@<TRIPOS>BOND
     1     1     2   1
     2     1     5   1
     3     1     8   1
     4     2     3   1
     5     2     9   1
     6     3     4   1
     7     3     7   1
     8     4     5   1
     9     5     6   1
    10     6    10   2
    11     7    11   1
    12    10    12   1
    13    11    27  ar
    14    11    31  ar
    15    12    13   1
    16    13    14  am
    17    14    15   1
    18    14    24   2
    19    15    16  ar
    20    15    20  ar
    21    16    17  ar
    22    16    22   1
    23    17    18  ar
    24    17    23   1
    25    18    19  ar
    26    19    20  ar
    27    19    21   1
    28    21    25   2
    29    21    26   2
    30    27    28  ar
    31    28    29  ar
    32    29    30  ar
    33    30    31  ar
    34     1    32   1
    35     2    33   1
    36     3    34   1
    37     5    35   1
    38     6    36   1
    39     8    37   1
    40     9    38   1
    41    10    39   1
    42    12    40   1
    43    12    41   1
    44    13    42   1
    45    18    43   1
    46    20    44   1
    47    22    45   1
    48    23    46   1
    49    27    47   1
    50    28    48   1
    51    30    49   1
    52    31    50   1
@<TRIPOS>SUBSTRUCTURE
     1  MOL      1

