@<TRIPOS>MOLECULE
3oe5_ligand_040
    50    52
SMALL
GAST_HUCK
****
This file was generated by PARSER (from files_GN.cpp)

@<TRIPOS>ATOM
      1 C1         17.2951  -30.4656   12.0791 C.3         1 MOL       0.1170
      2 C2         17.1592  -31.1039   13.4627 C.3         1 MOL       0.1229
      3 C3         17.7655  -32.5013   13.2054 C.3         1 MOL       0.1499
      4 O4         18.7729  -32.3358   12.1943 O.3         1 MOL      -0.3460
      5 C5         18.6696  -31.0250   11.6297 C.3         1 MOL       0.1063
      6 C6         19.9108  -30.3123   11.9884 C.2         1 MOL      -0.0658
      7 S7         18.3382  -33.2992   14.7324 S.3         1 MOL      -0.0558
      8 O8         16.2745  -30.8820   11.1690 O.3         1 MOL      -0.3847
      9 O9         15.8272  -31.1258   13.9631 O.3         1 MOL      -0.3853
     10 C10        20.0019  -29.1992   12.6911 C.2         1 MOL      -0.0744
     11 C11        20.0318  -33.4981   14.3797 C.ar        1 MOL       0.0383
     12 C12        21.1764  -28.3252   12.6293 C.3         1 MOL       0.0473
     13 N13        21.7198  -28.1234   11.3142 N.am        1 MOL      -0.2765
     14 C14        21.1491  -28.3422   10.1393 C.2         1 MOL       0.2411
     15 C15        21.8850  -28.1762    8.9771 C.ar        1 MOL       0.2482
     16 C16        22.7632  -27.0822    8.8040 C.ar        1 MOL       0.3921
     17 C17        23.5401  -26.9747    7.6285 C.ar        1 MOL       0.3797
     18 C18        23.4655  -27.9743    6.6353 C.ar        1 MOL       0.1691
     19 C19        22.6064  -29.0905    6.7858 C.ar        1 MOL       0.2168
     20 C20        21.8080  -29.1535    7.9566 C.ar        1 MOL       0.1162
     21 N21        22.5412  -30.0663    5.8269 N.2         1 MOL      -0.1404
     22 O22        22.8130  -26.0994    9.7485 O.3         1 MOL      -0.1763
     23 O23        24.2672  -25.8564    7.4060 O.3         1 MOL      -0.1825
     24 O24        20.0024  -28.7691   10.0297 O.2         1 MOL      -0.3823
     25 O25        23.2618  -30.0314    4.7362 O.2         1 MOL      -0.4541
     26 O26        21.8221  -31.0293    5.9212 O.2         1 MOL      -0.4541
     27 C27        20.9157  -32.4149   14.5396 C.ar        1 MOL      -0.0217
     28 C28        22.2829  -32.5992   14.2637 C.ar        1 MOL       0.0039
     29 N29        22.7284  -33.8148   13.8483 N.ar        1 MOL      -0.3066
     30 C30        21.9027  -34.8766   13.6799 C.ar        1 MOL       0.0039
     31 C31        20.5256  -34.7461   13.9403 C.ar        1 MOL      -0.0217
     32 H1         17.2490  -29.3772   12.1298 H           1 MOL       0.0667
     33 H2         17.7756  -30.5442   14.1755 H           1 MOL       0.0659
     34 H3         16.9873  -33.1476   12.7877 H           1 MOL       0.0771
     35 H4         18.6734  -31.1196   10.5423 H           1 MOL       0.0748
     36 H5         20.7185  -30.5928   11.4578 H           1 MOL       0.0477
     37 H6         16.0708  -31.8145   11.3881 H           1 MOL       0.2102
     38 H7         15.2653  -31.4799   13.2400 H           1 MOL       0.2101
     39 H8         19.2541  -28.8963   13.2795 H           1 MOL       0.0470
     40 H9         21.9611  -28.7786   13.2387 H           1 MOL       0.0643
     41 H10        20.9440  -27.3480   13.0465 H           1 MOL       0.0643
     42 H11        22.6377  -27.8017   11.2867 H           1 MOL       0.1867
     43 H12        24.0332  -27.8620    5.7858 H           1 MOL       0.1086
     44 H13        21.1793  -29.9476    8.0805 H           1 MOL       0.1563
     45 H14        23.7141  -25.7162    9.7267 H           1 MOL       0.3540
     46 H15        25.2155  -26.1135    7.4467 H           1 MOL       0.3497
     47 H16        20.5754  -31.4978   14.8431 H           1 MOL       0.0660
     48 H17        22.9416  -31.8279   14.3709 H           1 MOL       0.0803
     49 H18        22.2850  -35.7695   13.3615 H           1 MOL       0.0803
     50 H19        19.9013  -35.5445   13.8086 H           1 MOL       0.0660
@<TRIPOS>BOND
     1     1     2   1
     2     1     5   1
     3     1     8   1
     4     2     3   1
     5     2     9   1
     6     3     4   1
     7     3     7   1
     8     4     5   1
     9     5     6   1
    10     6    10   2
    11     7    11   1
    12    10    12   1
    13    11    27  ar
    14    11    31  ar
    15    12    13   1
    16    13    14  am
    17    14    15   1
    18    14    24   2
    19    15    16  ar
    20    15    20  ar
    21    16    17  ar
    22    16    22   1
    23    17    18  ar
    24    17    23   1
    25    18    19  ar
    26    19    20  ar
    27    19    21   1
    28    21    25   2
    29    21    26   2
    30    27    28  ar
    31    28    29  ar
    32    29    30  ar
    33    30    31  ar
    34     1    32   1
    35     2    33   1
    36     3    34   1
    37     5    35   1
    38     6    36   1
    39     8    37   1
    40     9    38   1
    41    10    39   1
    42    12    40   1
    43    12    41   1
    44    13    42   1
    45    18    43   1
    46    20    44   1
    47    22    45   1
    48    23    46   1
    49    27    47   1
    50    28    48   1
    51    30    49   1
    52    31    50   1
@<TRIPOS>SUBSTRUCTURE
     1  MOL      1

