@<TRIPOS>MOLECULE
3oe5_ligand_057
    50    52
SMALL
GAST_HUCK
****
This file was generated by PARSER (from files_GN.cpp)

@<TRIPOS>ATOM
      1 C1         20.5747  -32.0131    6.5655 C.3         1 MOL       0.1170
      2 C2         20.0989  -33.2274    5.7538 C.3         1 MOL       0.1229
      3 C3         21.3091  -33.4844    4.8344 C.3         1 MOL       0.1499
      4 O4         21.9911  -32.2244    4.6613 O.3         1 MOL      -0.3460
      5 C5         21.3708  -31.2278    5.4997 C.3         1 MOL       0.1063
      6 C6         22.3589  -30.2789    6.0082 C.2         1 MOL      -0.0658
      7 S7         22.4642  -34.6633    5.5915 S.3         1 MOL      -0.0558
      8 O8         19.5070  -31.2668    7.1495 O.3         1 MOL      -0.3847
      9 O9         18.9513  -32.9006    4.9653 O.3         1 MOL      -0.3853
     10 C10        22.0879  -29.2931    6.8728 C.2         1 MOL      -0.0744
     11 C11        23.4581  -34.9669    4.1985 C.ar        1 MOL       0.0383
     12 C12        23.1007  -28.3759    7.3722 C.3         1 MOL       0.0473
     13 N13        22.7505  -27.8253    8.6569 N.am        1 MOL      -0.2765
     14 C14        22.9202  -26.5769    9.0755 C.2         1 MOL       0.2411
     15 C15        22.5512  -26.1310   10.3611 C.ar        1 MOL       0.2482
     16 C16        21.6344  -26.8371   11.1940 C.ar        1 MOL       0.3921
     17 C17        21.2544  -26.3193   12.4472 C.ar        1 MOL       0.3797
     18 C18        21.7606  -25.0853   12.8830 C.ar        1 MOL       0.1691
     19 C19        22.6856  -24.3520   12.1074 C.ar        1 MOL       0.2168
     20 C20        23.0675  -24.9017   10.8598 C.ar        1 MOL       0.1162
     21 N21        23.1622  -23.1474   12.5369 N.2         1 MOL      -0.1404
     22 O22        21.0223  -27.9855   10.8059 O.3         1 MOL      -0.1763
     23 O23        20.3774  -26.9756   13.2514 O.3         1 MOL      -0.1825
     24 O24        23.4070  -25.7699    8.2910 O.2         1 MOL      -0.3823
     25 O25        22.7839  -22.6022   13.6602 O.2         1 MOL      -0.4541
     26 O26        23.9628  -22.5020   11.9123 O.2         1 MOL      -0.4541
     27 C27        23.0474  -35.9165    3.2396 C.ar        1 MOL      -0.0217
     28 C28        23.8746  -36.1700    2.1300 C.ar        1 MOL       0.0039
     29 N29        25.0543  -35.5092    2.0064 N.ar        1 MOL      -0.3066
     30 C30        25.4829  -34.5982    2.9158 C.ar        1 MOL       0.0039
     31 C31        24.6919  -34.3046    4.0417 C.ar        1 MOL      -0.0217
     32 H1         21.2344  -32.3517    7.3686 H           1 MOL       0.0667
     33 H2         19.8575  -34.0759    6.4000 H           1 MOL       0.0659
     34 H3         20.9727  -33.8455    3.8602 H           1 MOL       0.0771
     35 H4         20.6726  -30.6670    4.8756 H           1 MOL       0.0748
     36 H5         23.2981  -30.3810    5.6760 H           1 MOL       0.0477
     37 H6         19.3957  -30.4710    6.5925 H           1 MOL       0.2102
     38 H7         18.6925  -33.7316    4.5233 H           1 MOL       0.2101
     39 H8         21.1613  -29.1881    7.2184 H           1 MOL       0.0470
     40 H9         23.2438  -27.6091    6.6071 H           1 MOL       0.0643
     41 H10        24.0385  -28.9101    7.5042 H           1 MOL       0.0643
     42 H11        22.4222  -28.4602    9.3093 H           1 MOL       0.1867
     43 H12        21.4412  -24.7264   13.7823 H           1 MOL       0.1086
     44 H13        23.7332  -24.3699   10.2924 H           1 MOL       0.1563
     45 H14        20.2335  -27.6750   10.3178 H           1 MOL       0.3540
     46 H15        20.7795  -27.8463   13.4264 H           1 MOL       0.3497
     47 H16        22.1609  -36.4163    3.3380 H           1 MOL       0.0660
     48 H17        23.5934  -36.8454    1.4223 H           1 MOL       0.0803
     49 H18        26.3817  -34.1294    2.7763 H           1 MOL       0.0803
     50 H19        25.0156  -33.6181    4.7320 H           1 MOL       0.0660
@<TRIPOS>BOND
     1     1     2   1
     2     1     5   1
     3     1     8   1
     4     2     3   1
     5     2     9   1
     6     3     4   1
     7     3     7   1
     8     4     5   1
     9     5     6   1
    10     6    10   2
    11     7    11   1
    12    10    12   1
    13    11    27  ar
    14    11    31  ar
    15    12    13   1
    16    13    14  am
    17    14    15   1
    18    14    24   2
    19    15    16  ar
    20    15    20  ar
    21    16    17  ar
    22    16    22   1
    23    17    18  ar
    24    17    23   1
    25    18    19  ar
    26    19    20  ar
    27    19    21   1
    28    21    25   2
    29    21    26   2
    30    27    28  ar
    31    28    29  ar
    32    29    30  ar
    33    30    31  ar
    34     1    32   1
    35     2    33   1
    36     3    34   1
    37     5    35   1
    38     6    36   1
    39     8    37   1
    40     9    38   1
    41    10    39   1
    42    12    40   1
    43    12    41   1
    44    13    42   1
    45    18    43   1
    46    20    44   1
    47    22    45   1
    48    23    46   1
    49    27    47   1
    50    28    48   1
    51    30    49   1
    52    31    50   1
@<TRIPOS>SUBSTRUCTURE
     1  MOL      1

