@<TRIPOS>MOLECULE
3oe5_ligand_056
    50    52
SMALL
GAST_HUCK
****
This file was generated by PARSER (from files_GN.cpp)

@<TRIPOS>ATOM
      1 C1         22.2507  -31.7536   12.1515 C.3         1 MOL       0.1170
      2 C2         21.1082  -31.9933   11.1505 C.3         1 MOL       0.1229
      3 C3         19.8745  -31.5032   11.9382 C.3         1 MOL       0.1499
      4 O4         20.3300  -30.5783   12.9404 O.3         1 MOL      -0.3460
      5 C5         21.7633  -30.5088   12.9295 C.3         1 MOL       0.1063
      6 C6         22.2367  -29.2248   12.4122 C.2         1 MOL      -0.0658
      7 S7         18.6450  -30.7049   10.8684 S.3         1 MOL      -0.0558
      8 O8         22.4076  -32.8640   13.0450 O.3         1 MOL      -0.3847
      9 O9         20.9809  -33.3515   10.7223 O.3         1 MOL      -0.3853
     10 C10        21.7457  -28.5969   11.3310 C.2         1 MOL      -0.0744
     11 C11        17.4219  -30.4864   12.0842 C.ar        1 MOL       0.0383
     12 C12        22.2089  -27.3115   10.8316 C.3         1 MOL       0.0473
     13 N13        22.9424  -27.4203    9.6085 N.am        1 MOL      -0.2765
     14 C14        22.5292  -27.9616    8.4663 C.2         1 MOL       0.2411
     15 C15        23.4018  -28.1111    7.3930 C.ar        1 MOL       0.2482
     16 C16        24.2109  -27.0440    6.9362 C.ar        1 MOL       0.3921
     17 C17        25.0386  -27.2122    5.8116 C.ar        1 MOL       0.3797
     18 C18        25.1090  -28.4562    5.1646 C.ar        1 MOL       0.1691
     19 C19        24.3454  -29.5604    5.6142 C.ar        1 MOL       0.2168
     20 C20        23.4829  -29.3556    6.7191 C.ar        1 MOL       0.1162
     21 N21        24.4486  -30.7753    4.9959 N.2         1 MOL      -0.1404
     22 O22        24.1813  -25.8223    7.5231 O.3         1 MOL      -0.1763
     23 O23        25.7533  -26.1649    5.3309 O.3         1 MOL      -0.1825
     24 O24        21.3966  -28.4242    8.3619 O.2         1 MOL      -0.3823
     25 O25        25.2574  -30.9845    3.9946 O.2         1 MOL      -0.4541
     26 O26        23.8208  -31.7414    5.3499 O.2         1 MOL      -0.4541
     27 C27        17.5012  -29.4323   13.0172 C.ar        1 MOL      -0.0217
     28 C28        16.5185  -29.3337   14.0195 C.ar        1 MOL       0.0039
     29 N29        15.5144  -30.2450   14.0705 N.ar        1 MOL      -0.3066
     30 C30        15.3863  -31.2449   13.1621 C.ar        1 MOL       0.0039
     31 C31        16.3430  -31.3906   12.1420 C.ar        1 MOL      -0.0217
     32 H1         23.1994  -31.5866   11.6399 H           1 MOL       0.0667
     33 H2         21.2863  -31.3678   10.2632 H           1 MOL       0.0659
     34 H3         19.4102  -32.3522   12.4490 H           1 MOL       0.0771
     35 H4         22.0915  -30.5847   13.9726 H           1 MOL       0.0748
     36 H5         22.9797  -28.7979   12.9011 H           1 MOL       0.0477
     37 H6         22.6237  -33.6275   12.4738 H           1 MOL       0.2102
     38 H7         21.8341  -33.5562   10.2781 H           1 MOL       0.2101
     39 H8         21.0152  -29.0404   10.8243 H           1 MOL       0.0470
     40 H9         22.8555  -26.8186   11.5615 H           1 MOL       0.0643
     41 H10        21.3503  -26.6615   10.6771 H           1 MOL       0.0643
     42 H11        23.8540  -27.0844    9.6301 H           1 MOL       0.1867
     43 H12        25.7228  -28.5493    4.3528 H           1 MOL       0.1086
     44 H13        22.9226  -30.1416    7.0642 H           1 MOL       0.1563
     45 H14        24.6587  -25.9322    8.3702 H           1 MOL       0.3540
     46 H15        26.6951  -26.4132    5.4736 H           1 MOL       0.3497
     47 H16        18.2719  -28.7600   12.9929 H           1 MOL       0.0660
     48 H17        16.5614  -28.5905   14.7185 H           1 MOL       0.0803
     49 H18        14.6056  -31.9007   13.2344 H           1 MOL       0.0803
     50 H19        16.2597  -32.1578   11.4711 H           1 MOL       0.0660
@<TRIPOS>BOND
     1     1     2   1
     2     1     5   1
     3     1     8   1
     4     2     3   1
     5     2     9   1
     6     3     4   1
     7     3     7   1
     8     4     5   1
     9     5     6   1
    10     6    10   2
    11     7    11   1
    12    10    12   1
    13    11    27  ar
    14    11    31  ar
    15    12    13   1
    16    13    14  am
    17    14    15   1
    18    14    24   2
    19    15    16  ar
    20    15    20  ar
    21    16    17  ar
    22    16    22   1
    23    17    18  ar
    24    17    23   1
    25    18    19  ar
    26    19    20  ar
    27    19    21   1
    28    21    25   2
    29    21    26   2
    30    27    28  ar
    31    28    29  ar
    32    29    30  ar
    33    30    31  ar
    34     1    32   1
    35     2    33   1
    36     3    34   1
    37     5    35   1
    38     6    36   1
    39     8    37   1
    40     9    38   1
    41    10    39   1
    42    12    40   1
    43    12    41   1
    44    13    42   1
    45    18    43   1
    46    20    44   1
    47    22    45   1
    48    23    46   1
    49    27    47   1
    50    28    48   1
    51    30    49   1
    52    31    50   1
@<TRIPOS>SUBSTRUCTURE
     1  MOL      1

