@<TRIPOS>MOLECULE
3oe5_ligand_080
    50    52
SMALL
GAST_HUCK
****
This file was generated by PARSER (from files_GN.cpp)

@<TRIPOS>ATOM
      1 C1         22.3838  -34.7568    9.7109 C.3         1 MOL       0.1170
      2 C2         23.3467  -35.3113   10.7680 C.3         1 MOL       0.1229
      3 C3         23.5006  -34.1103   11.7235 C.3         1 MOL       0.1499
      4 O4         23.3258  -32.9237   10.9361 O.3         1 MOL      -0.3460
      5 C5         22.7901  -33.2641    9.6418 C.3         1 MOL       0.1063
      6 C6         21.7022  -32.4029    9.1924 C.2         1 MOL      -0.0658
      7 S7         22.2310  -34.0925   13.0275 S.3         1 MOL      -0.0558
      8 O8         22.4778  -35.4269    8.4548 O.3         1 MOL      -0.3847
      9 O9         24.6099  -35.6773   10.2032 O.3         1 MOL      -0.3853
     10 C10        21.2427  -31.3165    9.8445 C.2         1 MOL      -0.0744
     11 C11        23.2614  -34.0198   14.4305 C.ar        1 MOL       0.0383
     12 C12        20.0883  -30.5430    9.4069 C.3         1 MOL       0.0473
     13 N13        19.1324  -30.2495   10.4275 N.am        1 MOL      -0.2765
     14 C14        18.5686  -31.0966   11.2768 C.2         1 MOL       0.2411
     15 C15        17.5297  -30.6559   12.0690 C.ar        1 MOL       0.2482
     16 C16        17.7244  -29.6828   13.0811 C.ar        1 MOL       0.3921
     17 C17        16.6351  -29.2800   13.8793 C.ar        1 MOL       0.3797
     18 C18        15.3598  -29.8440   13.6791 C.ar        1 MOL       0.1691
     19 C19        15.1314  -30.8160   12.6740 C.ar        1 MOL       0.2168
     20 C20        16.2383  -31.2037   11.8789 C.ar        1 MOL       0.1162
     21 N21        13.8948  -31.3625   12.4790 N.2         1 MOL      -0.1404
     22 O22        18.9629  -29.1658   13.3187 O.3         1 MOL      -0.1763
     23 O23        16.8204  -28.3438   14.8439 O.3         1 MOL      -0.1825
     24 O24        18.9203  -32.2713   11.3727 O.2         1 MOL      -0.3823
     25 O25        12.8547  -31.0099   13.1836 O.2         1 MOL      -0.4541
     26 O26        13.6806  -32.1965   11.6403 O.2         1 MOL      -0.4541
     27 C27        24.0280  -32.8682   14.7046 C.ar        1 MOL      -0.0217
     28 C28        24.8571  -32.8531   15.8412 C.ar        1 MOL       0.0039
     29 N29        24.8968  -33.9326   16.6653 N.ar        1 MOL      -0.3066
     30 C30        24.1620  -35.0493   16.4375 C.ar        1 MOL       0.0039
     31 C31        23.3236  -35.1215   15.3102 C.ar        1 MOL      -0.0217
     32 H1         21.3571  -34.8601   10.0760 H           1 MOL       0.0667
     33 H2         22.9330  -36.1938   11.2618 H           1 MOL       0.0659
     34 H3         24.5054  -34.1064   12.1538 H           1 MOL       0.0771
     35 H4         23.6168  -33.1612    8.9285 H           1 MOL       0.0748
     36 H5         21.2862  -32.6291    8.3199 H           1 MOL       0.0477
     37 H6         23.4029  -35.2973    8.1577 H           1 MOL       0.2102
     38 H7         24.9641  -34.8615    9.7900 H           1 MOL       0.2101
     39 H8         21.7042  -31.0143   10.6706 H           1 MOL       0.0470
     40 H9         19.5552  -31.0295    8.5873 H           1 MOL       0.0643
     41 H10        20.4482  -29.5823    9.0365 H           1 MOL       0.0643
     42 H11        18.7751  -29.3471   10.4339 H           1 MOL       0.1867
     43 H12        14.5912  -29.5412   14.2818 H           1 MOL       0.1086
     44 H13        16.1030  -31.9006   11.1397 H           1 MOL       0.1563
     45 H14        19.0777  -29.2330   14.2960 H           1 MOL       0.3540
     46 H15        15.9247  -28.0280   15.0804 H           1 MOL       0.3497
     47 H16        23.9969  -32.0562   14.0859 H           1 MOL       0.0660
     48 H17        25.4268  -32.0363   16.0533 H           1 MOL       0.0803
     49 H18        24.2252  -35.8373   17.0860 H           1 MOL       0.0803
     50 H19        22.7728  -35.9679   15.1384 H           1 MOL       0.0660
@<TRIPOS>BOND
     1     1     2   1
     2     1     5   1
     3     1     8   1
     4     2     3   1
     5     2     9   1
     6     3     4   1
     7     3     7   1
     8     4     5   1
     9     5     6   1
    10     6    10   2
    11     7    11   1
    12    10    12   1
    13    11    27  ar
    14    11    31  ar
    15    12    13   1
    16    13    14  am
    17    14    15   1
    18    14    24   2
    19    15    16  ar
    20    15    20  ar
    21    16    17  ar
    22    16    22   1
    23    17    18  ar
    24    17    23   1
    25    18    19  ar
    26    19    20  ar
    27    19    21   1
    28    21    25   2
    29    21    26   2
    30    27    28  ar
    31    28    29  ar
    32    29    30  ar
    33    30    31  ar
    34     1    32   1
    35     2    33   1
    36     3    34   1
    37     5    35   1
    38     6    36   1
    39     8    37   1
    40     9    38   1
    41    10    39   1
    42    12    40   1
    43    12    41   1
    44    13    42   1
    45    18    43   1
    46    20    44   1
    47    22    45   1
    48    23    46   1
    49    27    47   1
    50    28    48   1
    51    30    49   1
    52    31    50   1
@<TRIPOS>SUBSTRUCTURE
     1  MOL      1

