@<TRIPOS>MOLECULE
3oe5_ligand_037
    50    52
SMALL
GAST_HUCK
****
This file was generated by PARSER (from files_GN.cpp)

@<TRIPOS>ATOM
      1 C1         21.9110  -36.1934   10.1144 C.3         1 MOL       0.1170
      2 C2         22.1170  -35.8936   11.6038 C.3         1 MOL       0.1229
      3 C3         23.5604  -35.3544   11.5988 C.3         1 MOL       0.1499
      4 O4         23.7030  -34.6050   10.3845 O.3         1 MOL      -0.3460
      5 C5         22.7321  -35.0680    9.4244 C.3         1 MOL       0.1063
      6 C6         21.9525  -33.9123    8.9960 C.2         1 MOL      -0.0658
      7 S7         23.8903  -34.3245   13.0542 S.3         1 MOL      -0.0558
      8 O8         22.4455  -37.4711    9.7638 O.3         1 MOL      -0.3847
      9 O9         21.9745  -37.0318   12.4514 O.3         1 MOL      -0.3853
     10 C10        22.4568  -32.9100    8.2555 C.2         1 MOL      -0.0744
     11 C11        25.4476  -33.6881   12.6143 C.ar        1 MOL       0.0383
     12 C12        21.6815  -31.7257    7.9259 C.3         1 MOL       0.0473
     13 N13        22.4861  -30.6413    7.4447 N.am        1 MOL      -0.2765
     14 C14        22.8153  -30.3639    6.1867 C.2         1 MOL       0.2411
     15 C15        23.6641  -29.2869    5.8779 C.ar        1 MOL       0.2482
     16 C16        23.5800  -28.0295    6.5348 C.ar        1 MOL       0.3921
     17 C17        24.5029  -27.0015    6.2618 C.ar        1 MOL       0.3797
     18 C18        25.5020  -27.1935    5.2914 C.ar        1 MOL       0.1691
     19 C19        25.6052  -28.4094    4.5774 C.ar        1 MOL       0.2168
     20 C20        24.6776  -29.4370    4.8912 C.ar        1 MOL       0.1162
     21 N21        26.5661  -28.5802    3.6184 N.2         1 MOL      -0.1404
     22 O22        22.5788  -27.7399    7.4046 O.3         1 MOL      -0.1763
     23 O23        24.3980  -25.8157    6.9139 O.3         1 MOL      -0.1825
     24 O24        22.4275  -31.1121    5.2989 O.2         1 MOL      -0.3823
     25 O25        27.4353  -27.6511    3.3238 O.2         1 MOL      -0.4541
     26 O26        26.6719  -29.5922    2.9788 O.2         1 MOL      -0.4541
     27 C27        25.5782  -32.3334   12.2426 C.ar        1 MOL      -0.0217
     28 C28        26.8513  -31.8284   11.9304 C.ar        1 MOL       0.0039
     29 N29        27.9350  -32.6426   12.0142 N.ar        1 MOL      -0.3066
     30 C30        27.8471  -33.9455   12.3823 C.ar        1 MOL       0.0039
     31 C31        26.5957  -34.4969   12.7035 C.ar        1 MOL      -0.0217
     32 H1         20.8508  -36.1796    9.8519 H           1 MOL       0.0667
     33 H2         21.4113  -35.1187   11.9283 H           1 MOL       0.0659
     34 H3         24.2687  -36.1889   11.5759 H           1 MOL       0.0771
     35 H4         23.2574  -35.4751    8.5528 H           1 MOL       0.0748
     36 H5         21.0109  -33.8328    9.3084 H           1 MOL       0.0477
     37 H6         21.8710  -38.1303   10.2130 H           1 MOL       0.2102
     38 H7         21.0284  -37.2899   12.3857 H           1 MOL       0.2101
     39 H8         23.4037  -32.9717    7.9399 H           1 MOL       0.0470
     40 H9         21.1898  -31.3710    8.8350 H           1 MOL       0.0643
     41 H10        20.9020  -31.9790    7.2051 H           1 MOL       0.0643
     42 H11        22.8679  -30.0707    8.1283 H           1 MOL       0.1867
     43 H12        26.1446  -26.4231    5.0960 H           1 MOL       0.1086
     44 H13        24.7576  -30.3301    4.3979 H           1 MOL       0.1563
     45 H14        22.9818  -27.8287    8.2937 H           1 MOL       0.3540
     46 H15        25.3083  -25.5163    7.0989 H           1 MOL       0.3497
     47 H16        24.7633  -31.7204   12.2150 H           1 MOL       0.0660
     48 H17        26.9677  -30.8513   11.6643 H           1 MOL       0.0803
     49 H18        28.6993  -34.5078   12.4458 H           1 MOL       0.0803
     50 H19        26.5376  -35.4661   13.0151 H           1 MOL       0.0660
@<TRIPOS>BOND
     1     1     2   1
     2     1     5   1
     3     1     8   1
     4     2     3   1
     5     2     9   1
     6     3     4   1
     7     3     7   1
     8     4     5   1
     9     5     6   1
    10     6    10   2
    11     7    11   1
    12    10    12   1
    13    11    27  ar
    14    11    31  ar
    15    12    13   1
    16    13    14  am
    17    14    15   1
    18    14    24   2
    19    15    16  ar
    20    15    20  ar
    21    16    17  ar
    22    16    22   1
    23    17    18  ar
    24    17    23   1
    25    18    19  ar
    26    19    20  ar
    27    19    21   1
    28    21    25   2
    29    21    26   2
    30    27    28  ar
    31    28    29  ar
    32    29    30  ar
    33    30    31  ar
    34     1    32   1
    35     2    33   1
    36     3    34   1
    37     5    35   1
    38     6    36   1
    39     8    37   1
    40     9    38   1
    41    10    39   1
    42    12    40   1
    43    12    41   1
    44    13    42   1
    45    18    43   1
    46    20    44   1
    47    22    45   1
    48    23    46   1
    49    27    47   1
    50    28    48   1
    51    30    49   1
    52    31    50   1
@<TRIPOS>SUBSTRUCTURE
     1  MOL      1

