@<TRIPOS>MOLECULE
3oe5_ligand_052
    50    52
SMALL
GAST_HUCK
****
This file was generated by PARSER (from files_GN.cpp)

@<TRIPOS>ATOM
      1 C1         22.2279  -31.2375    7.1922 C.3         1 MOL       0.1170
      2 C2         23.4592  -31.0692    6.2720 C.3         1 MOL       0.1229
      3 C3         23.6074  -29.5385    6.0829 C.3         1 MOL       0.1499
      4 O4         22.7861  -28.9383    7.0928 O.3         1 MOL      -0.3460
      5 C5         21.6541  -29.8009    7.2968 C.3         1 MOL       0.1063
      6 C6         20.9120  -29.3823    8.4880 C.2         1 MOL      -0.0658
      7 S7         25.2786  -28.8651    6.2914 S.3         1 MOL      -0.0558
      8 O8         21.2483  -32.1513    6.6922 O.3         1 MOL      -0.3847
      9 O9         23.3580  -31.7602    5.0196 O.3         1 MOL      -0.3853
     10 C10        20.9017  -29.9585    9.7085 C.2         1 MOL      -0.0744
     11 C11        26.1652  -29.8703    5.1802 C.ar        1 MOL       0.0383
     12 C12        20.0720  -29.4915   10.8040 C.3         1 MOL       0.0473
     13 N13        20.2381  -28.0971   11.0651 N.am        1 MOL      -0.2765
     14 C14        21.2247  -27.4934   11.7146 C.2         1 MOL       0.2411
     15 C15        21.2493  -26.0983   11.9218 C.ar        1 MOL       0.2482
     16 C16        20.1123  -25.2567   11.7524 C.ar        1 MOL       0.3921
     17 C17        20.1976  -23.8636   11.9877 C.ar        1 MOL       0.3797
     18 C18        21.4052  -23.3029   12.4339 C.ar        1 MOL       0.1691
     19 C19        22.5521  -24.0962   12.6355 C.ar        1 MOL       0.2168
     20 C20        22.4536  -25.4791   12.3451 C.ar        1 MOL       0.1162
     21 N21        23.7166  -23.5592   13.1063 N.2         1 MOL      -0.1404
     22 O22        18.8891  -25.7708   11.4440 O.3         1 MOL      -0.1763
     23 O23        19.1092  -23.0661   11.8017 O.3         1 MOL      -0.1825
     24 O24        22.1390  -28.2010   12.1274 O.2         1 MOL      -0.3823
     25 O25        23.8152  -22.3067   13.4369 O.2         1 MOL      -0.4541
     26 O26        24.7028  -24.2187   13.3184 O.2         1 MOL      -0.4541
     27 C27        26.2830  -29.5210    3.8203 C.ar        1 MOL      -0.0217
     28 C28        27.0046  -30.3680    2.9568 C.ar        1 MOL       0.0039
     29 N29        27.5495  -31.5151    3.4341 N.ar        1 MOL      -0.3066
     30 C30        27.4606  -31.8778    4.7380 C.ar        1 MOL       0.0039
     31 C31        26.7972  -31.0420    5.6515 C.ar        1 MOL      -0.0217
     32 H1         22.5741  -31.6096    8.1576 H           1 MOL       0.0667
     33 H2         24.3192  -31.4815    6.7951 H           1 MOL       0.0659
     34 H3         23.2338  -29.2447    5.1023 H           1 MOL       0.0771
     35 H4         20.9651  -29.6621    6.4517 H           1 MOL       0.0748
     36 H5         20.3709  -28.5483    8.3806 H           1 MOL       0.0477
     37 H6         20.5415  -32.1573    7.3724 H           1 MOL       0.2102
     38 H7         22.5697  -31.3920    4.5674 H           1 MOL       0.2101
     39 H8         21.4637  -30.7532    9.8915 H           1 MOL       0.0470
     40 H9         20.2615  -30.0715   11.7117 H           1 MOL       0.0643
     41 H10        19.0238  -29.6536   10.5311 H           1 MOL       0.0643
     42 H11        19.5517  -27.5401   10.6897 H           1 MOL       0.1867
     43 H12        21.4370  -22.2994   12.6215 H           1 MOL       0.1086
     44 H13        23.2863  -26.0610   12.4650 H           1 MOL       0.1563
     45 H14        18.2586  -25.0386   11.2723 H           1 MOL       0.3540
     46 H15        19.2083  -22.3018   12.4121 H           1 MOL       0.3497
     47 H16        25.8605  -28.6644    3.4576 H           1 MOL       0.0660
     48 H17        27.1129  -30.1313    1.9703 H           1 MOL       0.0803
     49 H18        27.8759  -32.7559    5.0524 H           1 MOL       0.0803
     50 H19        26.7619  -31.2984    6.6395 H           1 MOL       0.0660
@<TRIPOS>BOND
     1     1     2   1
     2     1     5   1
     3     1     8   1
     4     2     3   1
     5     2     9   1
     6     3     4   1
     7     3     7   1
     8     4     5   1
     9     5     6   1
    10     6    10   2
    11     7    11   1
    12    10    12   1
    13    11    27  ar
    14    11    31  ar
    15    12    13   1
    16    13    14  am
    17    14    15   1
    18    14    24   2
    19    15    16  ar
    20    15    20  ar
    21    16    17  ar
    22    16    22   1
    23    17    18  ar
    24    17    23   1
    25    18    19  ar
    26    19    20  ar
    27    19    21   1
    28    21    25   2
    29    21    26   2
    30    27    28  ar
    31    28    29  ar
    32    29    30  ar
    33    30    31  ar
    34     1    32   1
    35     2    33   1
    36     3    34   1
    37     5    35   1
    38     6    36   1
    39     8    37   1
    40     9    38   1
    41    10    39   1
    42    12    40   1
    43    12    41   1
    44    13    42   1
    45    18    43   1
    46    20    44   1
    47    22    45   1
    48    23    46   1
    49    27    47   1
    50    28    48   1
    51    30    49   1
    52    31    50   1
@<TRIPOS>SUBSTRUCTURE
     1  MOL      1

