@<TRIPOS>MOLECULE
3oe5_ligand_061
    50    52
SMALL
GAST_HUCK
****
This file was generated by PARSER (from files_GN.cpp)

@<TRIPOS>ATOM
      1 C1         17.0034  -30.2011   12.1461 C.3         1 MOL       0.1170
      2 C2         16.8249  -31.0149   13.4370 C.3         1 MOL       0.1229
      3 C3         17.5888  -32.3176   13.0873 C.3         1 MOL       0.1499
      4 O4         18.5696  -31.9872   12.0829 O.3         1 MOL      -0.3460
      5 C5         18.4301  -30.6132   11.7109 C.3         1 MOL       0.1063
      6 C6         19.5089  -29.8373   12.3160 C.2         1 MOL      -0.0658
      7 S7         18.2871  -33.1370   14.5678 S.3         1 MOL      -0.0558
      8 O8         16.0575  -30.5699   11.1325 O.3         1 MOL      -0.3847
      9 O9         15.4626  -31.2097   13.8237 O.3         1 MOL      -0.3853
     10 C10        20.7706  -30.2992   12.3369 C.2         1 MOL      -0.0744
     11 C11        19.9454  -33.3451   14.0750 C.ar        1 MOL       0.0383
     12 C12        21.8615  -29.5971   12.9762 C.3         1 MOL       0.0473
     13 N13        22.2001  -28.4120   12.2602 N.am        1 MOL      -0.2765
     14 C14        21.6004  -27.2238   12.3242 C.2         1 MOL       0.2411
     15 C15        22.2235  -26.1314   11.7267 C.ar        1 MOL       0.2482
     16 C16        22.5951  -26.1599   10.3594 C.ar        1 MOL       0.3921
     17 C17        23.3537  -25.1129    9.8043 C.ar        1 MOL       0.3797
     18 C18        23.7145  -24.0111   10.6007 C.ar        1 MOL       0.1691
     19 C19        23.3427  -23.9301   11.9643 C.ar        1 MOL       0.2168
     20 C20        22.5843  -24.9993   12.5012 C.ar        1 MOL       0.1162
     21 N21        23.7143  -22.8672   12.7307 N.2         1 MOL      -0.1404
     22 O22        22.1954  -27.1681    9.5428 O.3         1 MOL      -0.1763
     23 O23        23.7291  -25.1684    8.5035 O.3         1 MOL      -0.1825
     24 O24        20.5971  -27.0630   13.0198 O.2         1 MOL      -0.3823
     25 O25        24.4362  -21.8826   12.2762 O.2         1 MOL      -0.4541
     26 O26        23.3901  -22.7573   13.8830 O.2         1 MOL      -0.4541
     27 C27        20.9335  -32.4475   14.5322 C.ar        1 MOL      -0.0217
     28 C28        22.2649  -32.6260   14.1118 C.ar        1 MOL       0.0039
     29 N29        22.5808  -33.6392   13.2590 N.ar        1 MOL      -0.3066
     30 C30        21.6487  -34.5181   12.8038 C.ar        1 MOL       0.0039
     31 C31        20.3057  -34.3922   13.1996 C.ar        1 MOL      -0.0217
     32 H1         16.8995  -29.1268   12.3484 H           1 MOL       0.0667
     33 H2         17.3416  -30.5015   14.2655 H           1 MOL       0.0659
     34 H3         16.9024  -33.0346   12.6253 H           1 MOL       0.0771
     35 H4         18.5101  -30.5190   10.6234 H           1 MOL       0.0748
     36 H5         19.2979  -28.9587   12.7448 H           1 MOL       0.0477
     37 H6         15.7996  -31.5008   11.3169 H           1 MOL       0.2102
     38 H7         15.0353  -31.6769   13.0729 H           1 MOL       0.2101
     39 H8         20.9687  -31.1715   11.8979 H           1 MOL       0.0470
     40 H9         22.7415  -30.2472   12.9700 H           1 MOL       0.0643
     41 H10        21.6416  -29.3846   14.0317 H           1 MOL       0.0643
     42 H11        23.0104  -28.4614   11.7346 H           1 MOL       0.1867
     43 H12        24.2529  -23.2604   10.1613 H           1 MOL       0.1086
     44 H13        22.3331  -24.9782   13.4931 H           1 MOL       0.1563
     45 H14        21.2292  -27.0296    9.4430 H           1 MOL       0.3540
     46 H15        24.2775  -25.9853    8.4237 H           1 MOL       0.3497
     47 H16        20.6913  -31.6842   15.1689 H           1 MOL       0.0660
     48 H17        22.9957  -31.9872   14.4290 H           1 MOL       0.0803
     49 H18        21.9331  -35.2624   12.1640 H           1 MOL       0.0803
     50 H19        19.6068  -35.0552   12.8502 H           1 MOL       0.0660
@<TRIPOS>BOND
     1     1     2   1
     2     1     5   1
     3     1     8   1
     4     2     3   1
     5     2     9   1
     6     3     4   1
     7     3     7   1
     8     4     5   1
     9     5     6   1
    10     6    10   2
    11     7    11   1
    12    10    12   1
    13    11    27  ar
    14    11    31  ar
    15    12    13   1
    16    13    14  am
    17    14    15   1
    18    14    24   2
    19    15    16  ar
    20    15    20  ar
    21    16    17  ar
    22    16    22   1
    23    17    18  ar
    24    17    23   1
    25    18    19  ar
    26    19    20  ar
    27    19    21   1
    28    21    25   2
    29    21    26   2
    30    27    28  ar
    31    28    29  ar
    32    29    30  ar
    33    30    31  ar
    34     1    32   1
    35     2    33   1
    36     3    34   1
    37     5    35   1
    38     6    36   1
    39     8    37   1
    40     9    38   1
    41    10    39   1
    42    12    40   1
    43    12    41   1
    44    13    42   1
    45    18    43   1
    46    20    44   1
    47    22    45   1
    48    23    46   1
    49    27    47   1
    50    28    48   1
    51    30    49   1
    52    31    50   1
@<TRIPOS>SUBSTRUCTURE
     1  MOL      1

