@<TRIPOS>MOLECULE
3oe5_ligand_011
    50    52
SMALL
GAST_HUCK
****
This file was generated by PARSER (from files_GN.cpp)

@<TRIPOS>ATOM
      1 C1         19.6389  -29.7103   11.8694 C.3         1 MOL       0.1170
      2 C2         19.2038  -28.2719   12.1846 C.3         1 MOL       0.1229
      3 C3         20.5368  -27.5236   12.3630 C.3         1 MOL       0.1499
      4 O4         21.4695  -28.1716   11.4905 O.3         1 MOL      -0.3460
      5 C5         21.0142  -29.5025   11.1798 C.3         1 MOL       0.1063
      6 C6         20.9534  -29.6613    9.7323 C.2         1 MOL      -0.0658
      7 S7         20.4207  -25.7659   11.9241 S.3         1 MOL      -0.0558
      8 O8         19.7850  -30.5202   13.0405 O.3         1 MOL      -0.3847
      9 O9         18.3305  -28.1925   13.3063 O.3         1 MOL      -0.3853
     10 C10        20.7797  -30.8495    9.1273 C.2         1 MOL      -0.0744
     11 C11        21.9314  -25.1646   12.5584 C.ar        1 MOL       0.0383
     12 C12        20.7089  -31.0218    7.6846 C.3         1 MOL       0.0473
     13 N13        21.6163  -30.1504    6.9982 N.am        1 MOL      -0.2765
     14 C14        22.8339  -30.4216    6.5448 C.2         1 MOL       0.2411
     15 C15        23.6558  -29.3950    6.0560 C.ar        1 MOL       0.2482
     16 C16        23.5800  -28.0572    6.5390 C.ar        1 MOL       0.3921
     17 C17        24.4578  -27.0685    6.0666 C.ar        1 MOL       0.3797
     18 C18        25.3913  -27.3756    5.0580 C.ar        1 MOL       0.1691
     19 C19        25.4853  -28.6810    4.5248 C.ar        1 MOL       0.2168
     20 C20        24.6251  -29.6760    5.0575 C.ar        1 MOL       0.1162
     21 N21        26.3755  -28.9635    3.5289 N.2         1 MOL      -0.1404
     22 O22        22.6965  -27.6783    7.4971 O.3         1 MOL      -0.1763
     23 O23        24.4050  -25.8151    6.5906 O.3         1 MOL      -0.1825
     24 O24        23.2539  -31.5715    6.5768 O.2         1 MOL      -0.3823
     25 O25        27.1561  -28.0554    3.0124 O.2         1 MOL      -0.4541
     26 O26        26.4907  -30.0611    3.0546 O.2         1 MOL      -0.4541
     27 C27        21.9023  -24.1830   13.5733 C.ar        1 MOL      -0.0217
     28 C28        23.1150  -23.6858   14.0876 C.ar        1 MOL       0.0039
     29 N29        24.2951  -24.1420   13.5975 N.ar        1 MOL      -0.3066
     30 C30        24.3581  -25.0630   12.6036 C.ar        1 MOL       0.0039
     31 C31        23.1773  -25.5884   12.0481 C.ar        1 MOL      -0.0217
     32 H1         18.8848  -30.1866   11.2270 H           1 MOL       0.0667
     33 H2         18.6680  -27.8696   11.3192 H           1 MOL       0.0659
     34 H3         20.8743  -27.6251   13.4008 H           1 MOL       0.0771
     35 H4         21.7609  -30.1947   11.5875 H           1 MOL       0.0748
     36 H5         21.0612  -28.8510    9.1657 H           1 MOL       0.0477
     37 H6         20.4744  -30.0795   13.5818 H           1 MOL       0.2102
     38 H7         18.7778  -28.6366   14.0557 H           1 MOL       0.2101
     39 H8         20.6539  -31.6612    9.6904 H           1 MOL       0.0470
     40 H9         19.6904  -30.7871    7.3635 H           1 MOL       0.0643
     41 H10        20.8971  -32.0691    7.4289 H           1 MOL       0.0643
     42 H11        21.3393  -29.2245    6.9410 H           1 MOL       0.1867
     43 H12        25.9979  -26.6266    4.7158 H           1 MOL       0.1086
     44 H13        24.6904  -30.6289    4.6837 H           1 MOL       0.1563
     45 H14        23.1860  -27.7716    8.3416 H           1 MOL       0.3540
     46 H15        25.3151  -25.4560    6.5407 H           1 MOL       0.3497
     47 H16        21.0117  -23.8348   13.9433 H           1 MOL       0.0660
     48 H17        23.1117  -22.9884   14.8347 H           1 MOL       0.0803
     49 H18        25.2682  -25.3733   12.2723 H           1 MOL       0.0803
     50 H19        23.2290  -26.2714   11.2895 H           1 MOL       0.0660
@<TRIPOS>BOND
     1     1     2   1
     2     1     5   1
     3     1     8   1
     4     2     3   1
     5     2     9   1
     6     3     4   1
     7     3     7   1
     8     4     5   1
     9     5     6   1
    10     6    10   2
    11     7    11   1
    12    10    12   1
    13    11    27  ar
    14    11    31  ar
    15    12    13   1
    16    13    14  am
    17    14    15   1
    18    14    24   2
    19    15    16  ar
    20    15    20  ar
    21    16    17  ar
    22    16    22   1
    23    17    18  ar
    24    17    23   1
    25    18    19  ar
    26    19    20  ar
    27    19    21   1
    28    21    25   2
    29    21    26   2
    30    27    28  ar
    31    28    29  ar
    32    29    30  ar
    33    30    31  ar
    34     1    32   1
    35     2    33   1
    36     3    34   1
    37     5    35   1
    38     6    36   1
    39     8    37   1
    40     9    38   1
    41    10    39   1
    42    12    40   1
    43    12    41   1
    44    13    42   1
    45    18    43   1
    46    20    44   1
    47    22    45   1
    48    23    46   1
    49    27    47   1
    50    28    48   1
    51    30    49   1
    52    31    50   1
@<TRIPOS>SUBSTRUCTURE
     1  MOL      1

