@<TRIPOS>MOLECULE
3oe5_ligand_002
    50    52
SMALL
GAST_HUCK
****
This file was generated by PARSER (from files_GN.cpp)

@<TRIPOS>ATOM
      1 C1         16.4864  -30.8806   13.3667 C.3         1 MOL       0.1170
      2 C2         15.2664  -31.5858   12.7207 C.3         1 MOL       0.1229
      3 C3         14.9885  -30.7050   11.4868 C.3         1 MOL       0.1499
      4 O4         16.2940  -30.2879   11.0667 O.3         1 MOL      -0.3460
      5 C5         17.0219  -29.9265   12.2528 C.3         1 MOL       0.1063
      6 C6         18.4691  -29.9865   12.0314 C.2         1 MOL      -0.0658
      7 S7         14.2148  -31.5051   10.0561 S.3         1 MOL      -0.0558
      8 O8         16.1213  -30.1671   14.5545 O.3         1 MOL      -0.3847
      9 O9         14.1171  -31.7259   13.5640 O.3         1 MOL      -0.3853
     10 C10        19.3437  -29.4248   12.8828 C.2         1 MOL      -0.0744
     11 C11        12.6757  -31.9838   10.7087 C.ar        1 MOL       0.0383
     12 C12        20.7910  -29.4782   12.7618 C.3         1 MOL       0.0473
     13 N13        21.3467  -28.3861   12.0148 N.am        1 MOL      -0.2765
     14 C14        21.1425  -27.0931   12.2442 C.2         1 MOL       0.2411
     15 C15        21.9726  -26.1190   11.6727 C.ar        1 MOL       0.2482
     16 C16        22.4533  -26.2085   10.3374 C.ar        1 MOL       0.3921
     17 C17        23.3341  -25.2339    9.8285 C.ar        1 MOL       0.3797
     18 C18        23.7270  -24.1496   10.6352 C.ar        1 MOL       0.1691
     19 C19        23.2692  -24.0153   11.9687 C.ar        1 MOL       0.2168
     20 C20        22.3965  -25.0130   12.4583 C.ar        1 MOL       0.1162
     21 N21        23.6630  -22.9689   12.7533 N.2         1 MOL      -0.1404
     22 O22        22.0559  -27.1879    9.4826 O.3         1 MOL      -0.1763
     23 O23        23.7931  -25.3104    8.5500 O.3         1 MOL      -0.1825
     24 O24        20.2887  -26.7742   13.0687 O.2         1 MOL      -0.3823
     25 O25        24.4795  -22.0448   12.3310 O.2         1 MOL      -0.4541
     26 O26        23.2739  -22.8144   13.8811 O.2         1 MOL      -0.4541
     27 C27        12.5893  -32.9839   11.6969 C.ar        1 MOL      -0.0217
     28 C28        11.3151  -33.3911   12.1481 C.ar        1 MOL       0.0039
     29 N29        10.1970  -32.7885   11.6665 N.ar        1 MOL      -0.3066
     30 C30        10.2443  -31.8445   10.6904 C.ar        1 MOL       0.0039
     31 C31        11.4874  -31.4230   10.1852 C.ar        1 MOL      -0.0217
     32 H1         17.2366  -31.6288   13.6463 H           1 MOL       0.0667
     33 H2         15.5652  -32.5910   12.3980 H           1 MOL       0.0659
     34 H3         14.3905  -29.8293   11.7722 H           1 MOL       0.0771
     35 H4         16.7555  -28.8876   12.4916 H           1 MOL       0.0748
     36 H5         18.8033  -30.4483   11.2131 H           1 MOL       0.0477
     37 H6         15.6510  -29.3626   14.2470 H           1 MOL       0.2102
     38 H7         13.9356  -30.8141   13.9199 H           1 MOL       0.2101
     39 H8         18.9811  -28.9440   13.6764 H           1 MOL       0.0470
     40 H9         21.1078  -30.4211   12.3023 H           1 MOL       0.0643
     41 H10        21.2323  -29.4550   13.7643 H           1 MOL       0.0643
     42 H11        22.0518  -28.6219   11.3831 H           1 MOL       0.1867
     43 H12        24.3481  -23.4454   10.2334 H           1 MOL       0.1086
     44 H13        22.0772  -24.9452   13.4302 H           1 MOL       0.1563
     45 H14        21.0829  -27.0942    9.4464 H           1 MOL       0.3540
     46 H15        24.3877  -26.0899    8.5333 H           1 MOL       0.3497
     47 H16        13.4254  -33.4170   12.0844 H           1 MOL       0.0660
     48 H17        11.2330  -34.1194   12.8595 H           1 MOL       0.0803
     49 H18         9.3738  -31.4288   10.3491 H           1 MOL       0.0803
     50 H19        11.5184  -30.7090    9.4534 H           1 MOL       0.0660
@<TRIPOS>BOND
     1     1     2   1
     2     1     5   1
     3     1     8   1
     4     2     3   1
     5     2     9   1
     6     3     4   1
     7     3     7   1
     8     4     5   1
     9     5     6   1
    10     6    10   2
    11     7    11   1
    12    10    12   1
    13    11    27  ar
    14    11    31  ar
    15    12    13   1
    16    13    14  am
    17    14    15   1
    18    14    24   2
    19    15    16  ar
    20    15    20  ar
    21    16    17  ar
    22    16    22   1
    23    17    18  ar
    24    17    23   1
    25    18    19  ar
    26    19    20  ar
    27    19    21   1
    28    21    25   2
    29    21    26   2
    30    27    28  ar
    31    28    29  ar
    32    29    30  ar
    33    30    31  ar
    34     1    32   1
    35     2    33   1
    36     3    34   1
    37     5    35   1
    38     6    36   1
    39     8    37   1
    40     9    38   1
    41    10    39   1
    42    12    40   1
    43    12    41   1
    44    13    42   1
    45    18    43   1
    46    20    44   1
    47    22    45   1
    48    23    46   1
    49    27    47   1
    50    28    48   1
    51    30    49   1
    52    31    50   1
@<TRIPOS>SUBSTRUCTURE
     1  MOL      1

