@<TRIPOS>MOLECULE
3ov1_ligand_012
    58    59
SMALL
GAST_HUCK
****
This file was generated by PARSER (from files_GN.cpp)

@<TRIPOS>ATOM
      1 C         -10.8519   12.3003    0.9772 C.2         1 ACT       0.1753
      2 O         -10.0096   13.1775    1.1432 O.2         1 ACT      -0.3972
      3 CH3       -10.9887   11.7368   -0.3511 C.3         1 ACT       0.0258
      4 N         -11.6766   11.9264    1.9405 N.am        1 ACT      -0.2628
      5 CA        -11.7671   12.3889    3.3072 C.3         1 ACT       0.1465
      6 C         -12.0357   13.8294    3.4439 C.2         1 ACT       0.2045
      7 O         -12.3274   14.4828    2.4499 O.2         1 ACT      -0.3944
      8 CB        -10.6539   11.7631    4.2306 C.3         1 ACT       0.0400
      9 CG         -9.4553   12.5910    4.5570 C.ar        1 ACT      -0.0004
     10 CD1        -8.3467   12.6609    3.6874 C.ar        1 ACT      -0.0239
     11 CD2        -9.3721   13.2754    5.7979 C.ar        1 ACT      -0.0239
     12 CE1        -7.2396   13.4838    3.9860 C.ar        1 ACT       0.0115
     13 CE2        -8.2740   14.0958    6.0961 C.ar        1 ACT       0.0115
     14 CZ         -7.2293   14.2523    5.1717 C.ar        1 ACT       0.1728
     15 OH         -6.1813   15.0892    5.4596 O.3         1 ACT      -0.2040
     16 P          -6.2664   16.4657    4.7400 P.3         1 ACT       0.1348
     17 O1P        -7.4089   17.2870    5.0872 O.co2       1 ACT      -0.6653
     18 O2P        -5.0724   17.1989    5.0762 O.co2       1 ACT      -0.6653
     19 O3P        -6.2389   16.2935    3.3026 O.co2       1 ACT      -0.6653
     20 CB        -11.1520   16.4428    5.6116 C.3         1 ACT      -0.0184
     21 CG        -11.5257   16.8340    4.1831 C.3         1 ACT      -0.0184
     22 CA        -12.3703   15.7721    4.9309 C.3         1 ACT       0.1329
     23 C         -13.6647   16.1612    5.4933 C.2         1 ACT       0.2267
     24 O         -13.8356   17.3212    5.8578 O.2         1 ACT      -0.3419
     25 N         -12.1109   14.3872    4.6504 N.am        1 ACT      -0.2738
     26 N         -14.6860   15.3038    5.5378 N.am        1 ACT      -0.2608
     27 CA        -16.0182   15.6220    5.9876 C.3         1 ACT       0.1474
     28 C         -16.0540   15.5896    7.4490 C.2         1 ACT       0.2017
     29 O         -15.9064   14.5368    8.0630 O.2         1 ACT      -0.3945
     30 CB        -17.1119   14.7734    5.2546 C.3         1 ACT       0.0774
     31 CG        -17.5392   13.5288    5.8743 C.2         1 ACT       0.1781
     32 OD1       -18.6886   13.3935    6.2773 O.2         1 ACT      -0.3970
     33 ND2       -16.7367   12.4939    5.9592 N.am        1 ACT      -0.3007
     34 N         -16.1605   16.6844    8.1726 N.am        1 ACT      -0.2988
     35 H1        -11.7774   10.9783   -0.3879 H           1 ACT       0.0467
     36 H2        -10.0501   11.2663   -0.6505 H           1 ACT       0.0467
     37 H3        -11.2364   12.5288   -1.0648 H           1 ACT       0.0467
     38 H4        -12.3503   11.2765    1.6770 H           1 ACT       0.1885
     39 H5        -12.6966   11.9203    3.6473 H           1 ACT       0.0840
     40 H6        -10.3068   10.8170    3.8027 H           1 ACT       0.0584
     41 H7        -11.1333   11.4855    5.1749 H           1 ACT       0.0584
     42 H8         -8.3292   12.1128    2.8221 H           1 ACT       0.0703
     43 H9        -10.1303   13.2084    6.4789 H           1 ACT       0.0703
     44 H10        -6.4514   13.5335    3.3383 H           1 ACT       0.0736
     45 H11        -8.2553   14.6139    6.9836 H           1 ACT       0.0736
     46 H12       -11.3092   17.2562    6.3250 H           1 ACT       0.0276
     47 H13       -10.2007   15.9092    5.6498 H           1 ACT       0.0276
     48 H14       -10.8205   16.4870    3.4203 H           1 ACT       0.0276
     49 H15       -11.9629   17.8318    4.0721 H           1 ACT       0.0276
     50 H16       -11.9528   13.8092    5.4145 H           1 ACT       0.1839
     51 H17       -14.5327   14.4189    5.1766 H           1 ACT       0.1891
     52 H18       -16.2234   16.6528    5.6640 H           1 ACT       0.0828
     53 H19       -16.7598   14.5449    4.2459 H           1 ACT       0.0551
     54 H20       -17.9921   15.4099    5.1184 H           1 ACT       0.0551
     55 H21       -17.0620   11.6640    6.3460 H           1 ACT       0.1814
     56 H22       -15.8263   12.5510    5.6225 H           1 ACT       0.1814
     57 H23       -16.1503   16.6281    9.1413 H           1 ACT       0.1815
     58 H24       -16.2403   17.5523    7.7371 H           1 ACT       0.1815
@<TRIPOS>BOND
     1     1     2   2
     2     1     3   1
     3     4     1  am
     4     5     4   1
     5     6     5   1
     6     5     8   1
     7     6     7   2
     8    25     6  am
     9     8     9   1
    10     9    10  ar
    11     9    11  ar
    12    10    12  ar
    13    11    13  ar
    14    12    14  ar
    15    13    14  ar
    16    14    15   1
    17    15    16   1
    18    16    17  ar
    19    16    18  ar
    20    16    19  ar
    21    21    20   1
    22    22    20   1
    23    22    21   1
    24    22    23   1
    25    22    25   1
    26    23    24   2
    27    23    26  am
    28    26    27   1
    29    27    28   1
    30    27    30   1
    31    28    29   2
    32    28    34  am
    33    30    31   1
    34    31    32   2
    35    31    33  am
    36     3    35   1
    37     3    36   1
    38     3    37   1
    39     4    38   1
    40     5    39   1
    41     8    40   1
    42     8    41   1
    43    10    42   1
    44    11    43   1
    45    12    44   1
    46    13    45   1
    47    20    46   1
    48    20    47   1
    49    21    48   1
    50    21    49   1
    51    25    50   1
    52    26    51   1
    53    27    52   1
    54    30    53   1
    55    30    54   1
    56    33    55   1
    57    33    56   1
    58    34    57   1
    59    34    58   1
@<TRIPOS>SUBSTRUCTURE
     1  ACT      1

