@<TRIPOS>MOLECULE
3ov1_ligand_075
    58    59
SMALL
GAST_HUCK
****
This file was generated by PARSER (from files_GN.cpp)

@<TRIPOS>ATOM
      1 C         -12.4430   15.3072   -0.3295 C.2         1 ACT       0.1753
      2 O         -11.8612   15.6476    0.6953 O.2         1 ACT      -0.3972
      3 CH3       -12.5398   16.2631   -1.4008 C.3         1 ACT       0.0258
      4 N         -12.9712   14.0921   -0.4671 N.am        1 ACT      -0.2628
      5 CA        -12.9427   12.9979    0.4633 C.3         1 ACT       0.1465
      6 C         -13.6714   13.2906    1.7131 C.2         1 ACT       0.2045
      7 O         -13.2874   12.8264    2.7820 O.2         1 ACT      -0.3944
      8 CB        -11.4741   12.4611    0.6359 C.3         1 ACT       0.0400
      9 CG        -10.9052   11.8103   -0.5853 C.ar        1 ACT      -0.0004
     10 CD1       -10.0767   12.5066   -1.4994 C.ar        1 ACT      -0.0239
     11 CD2       -11.1381   10.4344   -0.8173 C.ar        1 ACT      -0.0239
     12 CE1        -9.5237   11.8527   -2.6190 C.ar        1 ACT       0.0115
     13 CE2       -10.5585    9.7716   -1.9145 C.ar        1 ACT       0.0115
     14 CZ         -9.7699   10.4826   -2.8445 C.ar        1 ACT       0.1728
     15 OH         -9.1200    9.8178   -3.8565 O.3         1 ACT      -0.2040
     16 P          -9.9892    9.4347   -5.0832 P.3         1 ACT       0.1348
     17 O1P       -10.3166   10.5577   -5.9354 O.co2       1 ACT      -0.6653
     18 O2P        -9.2205    8.5088   -5.8771 O.co2       1 ACT      -0.6653
     19 O3P       -11.1950    8.7213   -4.7231 O.co2       1 ACT      -0.6653
     20 CB        -15.2247   14.4897    4.2140 C.3         1 ACT      -0.0184
     21 CG        -15.3949   15.7162    3.3064 C.3         1 ACT      -0.0184
     22 CA        -15.7145   14.2989    2.7517 C.3         1 ACT       0.1329
     23 C         -17.1311   14.1602    2.4507 C.2         1 ACT       0.2267
     24 O         -17.5132   14.4755    1.3286 O.2         1 ACT      -0.3419
     25 N         -14.8103   13.9750    1.6770 N.am        1 ACT      -0.2738
     26 N         -18.0117   13.8044    3.3852 N.am        1 ACT      -0.2608
     27 CA        -19.4485   13.7477    3.2636 C.3         1 ACT       0.1474
     28 C         -20.0359   13.5701    4.5826 C.2         1 ACT       0.2017
     29 O         -19.5233   12.8364    5.4179 O.2         1 ACT      -0.3945
     30 CB        -19.9264   12.6138    2.2871 C.3         1 ACT       0.0774
     31 CG        -20.3045   13.0823    0.9689 C.2         1 ACT       0.1781
     32 OD1       -19.6842   12.7354   -0.0294 O.2         1 ACT      -0.3970
     33 ND2       -21.3657   13.8475    0.7978 N.am        1 ACT      -0.3007
     34 N         -21.2317   14.0465    4.8595 N.am        1 ACT      -0.2988
     35 H1        -13.0947   15.8618   -2.2561 H           1 ACT       0.0467
     36 H2        -11.5378   16.5345   -1.7448 H           1 ACT       0.0467
     37 H3        -13.0508   17.1648   -1.0555 H           1 ACT       0.0467
     38 H4        -13.4269   13.9262   -1.3075 H           1 ACT       0.1885
     39 H5        -13.5179   12.1988   -0.0140 H           1 ACT       0.0840
     40 H6        -11.4526   11.7222    1.4429 H           1 ACT       0.0584
     41 H7        -10.8239   13.2732    0.9688 H           1 ACT       0.0584
     42 H8         -9.8567   13.4934   -1.3470 H           1 ACT       0.0703
     43 H9        -11.7154    9.8972   -0.1730 H           1 ACT       0.0703
     44 H10        -8.9145   12.3662   -3.2625 H           1 ACT       0.0736
     45 H11       -10.7007    8.7670   -2.0272 H           1 ACT       0.0736
     46 H12       -15.9436   14.4728    5.0382 H           1 ACT       0.0276
     47 H13       -14.1783   14.2459    4.4339 H           1 ACT       0.0276
     48 H14       -14.4306   16.1793    3.0904 H           1 ACT       0.0276
     49 H15       -16.2210   16.3602    3.6267 H           1 ACT       0.0276
     50 H16       -15.0864   14.2977    0.8068 H           1 ACT       0.1839
     51 H17       -17.6447   13.5973    4.2560 H           1 ACT       0.1891
     52 H18       -19.7720   14.7288    2.8929 H           1 ACT       0.0828
     53 H19       -20.7962   12.0885    2.6892 H           1 ACT       0.0551
     54 H20       -19.1290   11.8637    2.2009 H           1 ACT       0.0551
     55 H21       -21.6281   14.1159   -0.0945 H           1 ACT       0.1814
     56 H22       -21.8891   14.1325    1.5632 H           1 ACT       0.1814
     57 H23       -21.6412   13.8574    5.7164 H           1 ACT       0.1815
     58 H24       -21.7128   14.5639    4.1968 H           1 ACT       0.1815
@<TRIPOS>BOND
     1     1     2   2
     2     1     3   1
     3     4     1  am
     4     5     4   1
     5     6     5   1
     6     5     8   1
     7     6     7   2
     8    25     6  am
     9     8     9   1
    10     9    10  ar
    11     9    11  ar
    12    10    12  ar
    13    11    13  ar
    14    12    14  ar
    15    13    14  ar
    16    14    15   1
    17    15    16   1
    18    16    17  ar
    19    16    18  ar
    20    16    19  ar
    21    21    20   1
    22    22    20   1
    23    22    21   1
    24    22    23   1
    25    22    25   1
    26    23    24   2
    27    23    26  am
    28    26    27   1
    29    27    28   1
    30    27    30   1
    31    28    29   2
    32    28    34  am
    33    30    31   1
    34    31    32   2
    35    31    33  am
    36     3    35   1
    37     3    36   1
    38     3    37   1
    39     4    38   1
    40     5    39   1
    41     8    40   1
    42     8    41   1
    43    10    42   1
    44    11    43   1
    45    12    44   1
    46    13    45   1
    47    20    46   1
    48    20    47   1
    49    21    48   1
    50    21    49   1
    51    25    50   1
    52    26    51   1
    53    27    52   1
    54    30    53   1
    55    30    54   1
    56    33    55   1
    57    33    56   1
    58    34    57   1
    59    34    58   1
@<TRIPOS>SUBSTRUCTURE
     1  ACT      1

