@<TRIPOS>MOLECULE
3ov1_ligand_042
    58    59
SMALL
GAST_HUCK
****
This file was generated by PARSER (from files_GN.cpp)

@<TRIPOS>ATOM
      1 C          -6.5500   12.1540   -5.2058 C.2         1 ACT       0.1753
      2 O          -5.6513   11.3215   -5.2062 O.2         1 ACT      -0.3972
      3 CH3        -6.1993   13.5461   -5.3435 C.3         1 ACT       0.0258
      4 N          -7.8245   11.8128   -5.0847 N.am        1 ACT      -0.2628
      5 CA         -8.3599   10.4811   -4.9783 C.3         1 ACT       0.1465
      6 C          -9.6757   10.4316   -5.6230 C.2         1 ACT       0.2045
      7 O         -10.5598    9.7082   -5.1757 O.2         1 ACT      -0.3944
      8 CB         -8.3024   10.0033   -3.4850 C.3         1 ACT       0.0400
      9 CG         -9.3768   10.5293   -2.5895 C.ar        1 ACT      -0.0004
     10 CD1       -10.2556    9.6476   -1.9161 C.ar        1 ACT      -0.0239
     11 CD2        -9.5560   11.9216   -2.4115 C.ar        1 ACT      -0.0239
     12 CE1       -11.3098   10.1435   -1.1326 C.ar        1 ACT       0.0115
     13 CE2       -10.6176   12.4193   -1.6345 C.ar        1 ACT       0.0115
     14 CZ        -11.5254   11.5311   -1.0228 C.ar        1 ACT       0.1728
     15 OH        -12.5810   11.9539   -0.2649 O.3         1 ACT      -0.2040
     16 P         -13.8022   12.4961   -1.0732 P.3         1 ACT       0.1348
     17 O1P       -14.0360   11.9075   -2.3690 O.co2       1 ACT      -0.6653
     18 O2P       -14.9807   12.2838   -0.2742 O.co2       1 ACT      -0.6653
     19 O3P       -13.6677   13.9219   -1.2238 O.co2       1 ACT      -0.6653
     20 CB        -12.3502   11.7585   -6.7905 C.3         1 ACT      -0.0184
     21 CG        -11.5637   12.6380   -7.7641 C.3         1 ACT      -0.0184
     22 CA        -11.0951   11.1899   -7.4899 C.3         1 ACT       0.1329
     23 C         -11.2531   10.2115   -8.5482 C.2         1 ACT       0.2267
     24 O         -11.2264   10.5788   -9.7146 O.2         1 ACT      -0.3419
     25 N          -9.8824   11.1194   -6.7413 N.am        1 ACT      -0.2738
     26 N         -11.2992    8.9269   -8.2253 N.am        1 ACT      -0.2608
     27 CA        -11.4713    7.7944   -9.0931 C.3         1 ACT       0.1474
     28 C         -10.1783    7.3695   -9.6122 C.2         1 ACT       0.2017
     29 O          -9.5619    6.4611   -9.0725 O.2         1 ACT      -0.3945
     30 CB        -12.6124    7.9602  -10.1516 C.3         1 ACT       0.0774
     31 CG        -12.9550    6.7408  -10.8632 C.2         1 ACT       0.1781
     32 OD1       -14.0010    6.1489  -10.6412 O.2         1 ACT      -0.3970
     33 ND2       -12.2029    6.3172  -11.8527 N.am        1 ACT      -0.3007
     34 N          -9.6372    7.9055  -10.6832 N.am        1 ACT      -0.2988
     35 H1         -7.0855   14.1855   -5.3468 H           1 ACT       0.0467
     36 H2         -5.6635   13.7012   -6.2813 H           1 ACT       0.0467
     37 H3         -5.5611   13.8478   -4.5118 H           1 ACT       0.0467
     38 H4         -8.4695   12.5388   -5.1127 H           1 ACT       0.1885
     39 H5         -7.7205    9.8076   -5.5596 H           1 ACT       0.0840
     40 H6         -7.3406   10.2807   -3.0437 H           1 ACT       0.0584
     41 H7         -8.3200    8.9079   -3.4917 H           1 ACT       0.0584
     42 H8        -10.1525    8.6332   -2.0180 H           1 ACT       0.0703
     43 H9         -8.9380   12.5876   -2.8715 H           1 ACT       0.0703
     44 H10       -11.9426    9.4869   -0.6701 H           1 ACT       0.0736
     45 H11       -10.7510   13.4268   -1.5467 H           1 ACT       0.0736
     46 H12       -13.3202   11.4180   -7.1565 H           1 ACT       0.0276
     47 H13       -12.2629   12.0621   -5.7444 H           1 ACT       0.0276
     48 H14       -11.0029   13.4450   -7.2886 H           1 ACT       0.0276
     49 H15       -12.1097   12.8527   -8.6856 H           1 ACT       0.0276
     50 H16        -9.1282   11.6155   -7.0983 H           1 ACT       0.1839
     51 H17       -11.1790    8.7184   -7.2828 H           1 ACT       0.1891
     52 H18       -11.8094    7.0081   -8.4138 H           1 ACT       0.0828
     53 H19       -12.3474    8.7215  -10.8894 H           1 ACT       0.0551
     54 H20       -13.4983    8.3338   -9.6292 H           1 ACT       0.0551
     55 H21       -12.4589    5.5373  -12.3672 H           1 ACT       0.1814
     56 H22       -11.4118    6.8161  -12.0989 H           1 ACT       0.1814
     57 H23        -8.8111    7.5426  -11.0384 H           1 ACT       0.1815
     58 H24       -10.1010    8.6065  -11.1700 H           1 ACT       0.1815
@<TRIPOS>BOND
     1     1     2   2
     2     1     3   1
     3     4     1  am
     4     5     4   1
     5     6     5   1
     6     5     8   1
     7     6     7   2
     8    25     6  am
     9     8     9   1
    10     9    10  ar
    11     9    11  ar
    12    10    12  ar
    13    11    13  ar
    14    12    14  ar
    15    13    14  ar
    16    14    15   1
    17    15    16   1
    18    16    17  ar
    19    16    18  ar
    20    16    19  ar
    21    21    20   1
    22    22    20   1
    23    22    21   1
    24    22    23   1
    25    22    25   1
    26    23    24   2
    27    23    26  am
    28    26    27   1
    29    27    28   1
    30    27    30   1
    31    28    29   2
    32    28    34  am
    33    30    31   1
    34    31    32   2
    35    31    33  am
    36     3    35   1
    37     3    36   1
    38     3    37   1
    39     4    38   1
    40     5    39   1
    41     8    40   1
    42     8    41   1
    43    10    42   1
    44    11    43   1
    45    12    44   1
    46    13    45   1
    47    20    46   1
    48    20    47   1
    49    21    48   1
    50    21    49   1
    51    25    50   1
    52    26    51   1
    53    27    52   1
    54    30    53   1
    55    30    54   1
    56    33    55   1
    57    33    56   1
    58    34    57   1
    59    34    58   1
@<TRIPOS>SUBSTRUCTURE
     1  ACT      1

