@<TRIPOS>MOLECULE
3ov1_ligand_011
    58    59
SMALL
GAST_HUCK
****
This file was generated by PARSER (from files_GN.cpp)

@<TRIPOS>ATOM
      1 C         -11.2358   10.4632   -0.9644 C.2         1 ACT       0.1753
      2 O         -11.2848   10.8630    0.1913 O.2         1 ACT      -0.3972
      3 CH3       -10.9444    9.0658   -1.1980 C.3         1 ACT       0.0258
      4 N         -11.4905   11.2595   -1.9900 N.am        1 ACT      -0.2628
      5 CA        -11.8509   12.6558   -1.9729 C.3         1 ACT       0.1465
      6 C         -13.3081   12.8122   -1.9906 C.2         1 ACT       0.2045
      7 O         -14.0120   12.0714   -2.6650 O.2         1 ACT      -0.3944
      8 CB        -11.1329   13.4492   -3.1186 C.3         1 ACT       0.0400
      9 CG        -10.9090   12.6702   -4.3683 C.ar        1 ACT      -0.0004
     10 CD1       -11.9397   12.5273   -5.3284 C.ar        1 ACT      -0.0239
     11 CD2        -9.6986   11.9664   -4.5650 C.ar        1 ACT      -0.0239
     12 CE1       -11.7806   11.6572   -6.4234 C.ar        1 ACT       0.0115
     13 CE2        -9.5425   11.0928   -5.6552 C.ar        1 ACT       0.0115
     14 CZ        -10.6002   10.9015   -6.5699 C.ar        1 ACT       0.1728
     15 OH        -10.5097   10.0123   -7.6105 O.3         1 ACT      -0.2040
     16 P         -10.7942    8.5306   -7.2115 P.3         1 ACT       0.1348
     17 O1P       -11.3643    7.8876   -8.3751 O.co2       1 ACT      -0.6653
     18 O2P        -9.5600    7.8341   -6.9155 O.co2       1 ACT      -0.6653
     19 O3P       -11.7252    8.3413   -6.1262 O.co2       1 ACT      -0.6653
     20 CB        -15.6091   15.4568   -1.7092 C.3         1 ACT      -0.0184
     21 CG        -16.1975   14.2127   -2.3816 C.3         1 ACT      -0.0184
     22 CA        -15.2704   14.0479   -1.1592 C.3         1 ACT       0.1329
     23 C         -15.8205   13.8295    0.1631 C.2         1 ACT       0.2267
     24 O         -15.4895   14.6042    1.0525 O.2         1 ACT      -0.3419
     25 N         -13.8706   13.8016   -1.3051 N.am        1 ACT      -0.2738
     26 N         -16.6539   12.8132    0.3856 N.am        1 ACT      -0.2608
     27 CA        -17.3221   12.4530    1.6188 C.3         1 ACT       0.1474
     28 C         -18.1948   13.4860    2.1750 C.2         1 ACT       0.2017
     29 O         -18.3035   14.5953    1.6733 O.2         1 ACT      -0.3945
     30 CB        -16.3490   11.8031    2.6544 C.3         1 ACT       0.0774
     31 CG        -15.3589   12.6827    3.2531 C.2         1 ACT       0.1781
     32 OD1       -15.6973   13.5642    4.0293 O.2         1 ACT      -0.3970
     33 ND2       -14.0749   12.5713    2.9749 N.am        1 ACT      -0.3007
     34 N         -18.9546   13.2456    3.2216 N.am        1 ACT      -0.2988
     35 H1        -10.9358    8.8224   -2.2639 H           1 ACT       0.0467
     36 H2        -11.6940    8.4368   -0.7127 H           1 ACT       0.0467
     37 H3         -9.9622    8.8302   -0.7883 H           1 ACT       0.0467
     38 H4        -11.4599   10.8381   -2.8621 H           1 ACT       0.1885
     39 H5        -11.4915   13.0858   -1.0298 H           1 ACT       0.0840
     40 H6        -10.1652   13.7873   -2.7383 H           1 ACT       0.0584
     41 H7        -11.6847   14.3626   -3.3542 H           1 ACT       0.0584
     42 H8        -12.8273   13.0271   -5.2157 H           1 ACT       0.0703
     43 H9         -8.9395   12.0428   -3.8882 H           1 ACT       0.0703
     44 H10       -12.5470   11.5408   -7.0910 H           1 ACT       0.0736
     45 H11        -8.6772   10.5588   -5.7561 H           1 ACT       0.0736
     46 H12       -16.3689   16.0600   -1.1952 H           1 ACT       0.0276
     47 H13       -14.8680   15.9645   -2.3353 H           1 ACT       0.0276
     48 H14       -15.7623   13.9611   -3.3511 H           1 ACT       0.0276
     49 H15       -17.2700   14.0623   -2.2167 H           1 ACT       0.0276
     50 H16       -13.2841   14.4119   -0.8299 H           1 ACT       0.1839
     51 H17       -16.8641   12.2573   -0.3864 H           1 ACT       0.1891
     52 H18       -17.9980   11.6453    1.3251 H           1 ACT       0.0828
     53 H19       -15.8417   10.9751    2.1536 H           1 ACT       0.0551
     54 H20       -16.9237   11.3530    3.4673 H           1 ACT       0.0551
     55 H21       -13.4318   13.1786    3.3820 H           1 ACT       0.1814
     56 H22       -13.7691   11.9018    2.3389 H           1 ACT       0.1814
     57 H23       -19.5322   13.9431    3.5757 H           1 ACT       0.1815
     58 H24       -18.9349   12.3784    3.6556 H           1 ACT       0.1815
@<TRIPOS>BOND
     1     1     2   2
     2     1     3   1
     3     4     1  am
     4     5     4   1
     5     6     5   1
     6     5     8   1
     7     6     7   2
     8    25     6  am
     9     8     9   1
    10     9    10  ar
    11     9    11  ar
    12    10    12  ar
    13    11    13  ar
    14    12    14  ar
    15    13    14  ar
    16    14    15   1
    17    15    16   1
    18    16    17  ar
    19    16    18  ar
    20    16    19  ar
    21    21    20   1
    22    22    20   1
    23    22    21   1
    24    22    23   1
    25    22    25   1
    26    23    24   2
    27    23    26  am
    28    26    27   1
    29    27    28   1
    30    27    30   1
    31    28    29   2
    32    28    34  am
    33    30    31   1
    34    31    32   2
    35    31    33  am
    36     3    35   1
    37     3    36   1
    38     3    37   1
    39     4    38   1
    40     5    39   1
    41     8    40   1
    42     8    41   1
    43    10    42   1
    44    11    43   1
    45    12    44   1
    46    13    45   1
    47    20    46   1
    48    20    47   1
    49    21    48   1
    50    21    49   1
    51    25    50   1
    52    26    51   1
    53    27    52   1
    54    30    53   1
    55    30    54   1
    56    33    55   1
    57    33    56   1
    58    34    57   1
    59    34    58   1
@<TRIPOS>SUBSTRUCTURE
     1  ACT      1

