@<TRIPOS>MOLECULE
3ov1_ligand_017
    58    59
SMALL
GAST_HUCK
****
This file was generated by PARSER (from files_GN.cpp)

@<TRIPOS>ATOM
      1 C         -10.7961   10.6434   -1.7435 C.2         1 ACT       0.1753
      2 O         -10.7997   11.8362   -2.0216 O.2         1 ACT      -0.3972
      3 CH3       -11.6390   10.1975   -0.6621 C.3         1 ACT       0.0258
      4 N         -10.0839    9.7593   -2.4308 N.am        1 ACT      -0.2628
      5 CA         -9.2469    9.9954   -3.5777 C.3         1 ACT       0.1465
      6 C          -9.9575    9.5560   -4.7777 C.2         1 ACT       0.2045
      7 O         -10.4969    8.4562   -4.7971 O.2         1 ACT      -0.3944
      8 CB         -7.8415    9.3090   -3.4116 C.3         1 ACT       0.0400
      9 CG         -6.7084   10.2786   -3.4179 C.ar        1 ACT      -0.0004
     10 CD1        -5.9078   10.5080   -2.2730 C.ar        1 ACT      -0.0239
     11 CD2        -6.4407   11.0297   -4.5854 C.ar        1 ACT      -0.0239
     12 CE1        -4.9275   11.5221   -2.2722 C.ar        1 ACT       0.0115
     13 CE2        -5.4570   12.0337   -4.5894 C.ar        1 ACT       0.0115
     14 CZ         -4.7293   12.3238   -3.4144 C.ar        1 ACT       0.1728
     15 OH         -3.8001   13.3278   -3.3876 O.3         1 ACT      -0.2040
     16 P          -4.3954   14.7591   -3.2342 P.3         1 ACT       0.1348
     17 O1P        -5.1507   15.1472   -4.4003 O.co2       1 ACT      -0.6653
     18 O2P        -5.2151   14.9388   -2.0623 O.co2       1 ACT      -0.6653
     19 O3P        -3.2935   15.6867   -3.1378 O.co2       1 ACT      -0.6653
     20 CB        -11.9606   11.0805   -7.1972 C.3         1 ACT      -0.0184
     21 CG        -10.6711   11.4022   -7.9552 C.3         1 ACT      -0.0184
     22 CA        -10.7368   10.1519   -7.0454 C.3         1 ACT       0.1329
     23 C         -10.6001    8.8965   -7.7813 C.2         1 ACT       0.2267
     24 O          -9.7476    8.0968   -7.4065 O.2         1 ACT      -0.3419
     25 N         -10.0018   10.3587   -5.8332 N.am        1 ACT      -0.2738
     26 N         -11.3667    8.6219   -8.8321 N.am        1 ACT      -0.2608
     27 CA        -11.4601    7.3860   -9.5676 C.3         1 ACT       0.1474
     28 C         -10.1643    6.9657  -10.0932 C.2         1 ACT       0.2017
     29 O          -9.5428    6.0661   -9.5445 O.2         1 ACT      -0.3945
     30 CB        -12.5746    7.5254  -10.6495 C.3         1 ACT       0.0774
     31 CG        -12.9129    6.2856  -11.3242 C.2         1 ACT       0.1781
     32 OD1       -13.8773    5.6251  -10.9758 O.2         1 ACT      -0.3970
     33 ND2       -12.1862    5.8390  -12.3266 N.am        1 ACT      -0.3007
     34 N          -9.5828    7.5808  -11.1025 N.am        1 ACT      -0.2988
     35 H1        -11.5728    9.1158   -0.5234 H           1 ACT       0.0467
     36 H2        -12.6760   10.4525   -0.8841 H           1 ACT       0.0467
     37 H3        -11.3446   10.6844    0.2691 H           1 ACT       0.0467
     38 H4        -10.1718    8.8328   -2.1541 H           1 ACT       0.1885
     39 H5         -9.0928   11.0812   -3.6613 H           1 ACT       0.0840
     40 H6         -7.6648    8.5884   -4.2155 H           1 ACT       0.0584
     41 H7         -7.8250    8.7273   -2.4842 H           1 ACT       0.0584
     42 H8         -6.0462    9.9589   -1.4232 H           1 ACT       0.0703
     43 H9         -6.9835   10.8686   -5.4379 H           1 ACT       0.0703
     44 H10        -4.3703   11.6886   -1.4306 H           1 ACT       0.0736
     45 H11        -5.2883   12.5727   -5.4402 H           1 ACT       0.0736
     46 H12       -12.7948   10.7217   -7.8025 H           1 ACT       0.0276
     47 H13       -12.1805   11.7426   -6.3541 H           1 ACT       0.0276
     48 H14       -10.1455   12.2853   -7.5815 H           1 ACT       0.0276
     49 H15       -10.7757   11.2926   -9.0382 H           1 ACT       0.0276
     50 H16        -9.5282   11.2030   -5.7571 H           1 ACT       0.1839
     51 H17       -11.9701    9.3280   -9.1229 H           1 ACT       0.1891
     52 H18       -11.7997    6.6293   -8.8467 H           1 ACT       0.0828
     53 H19       -12.2849    8.2723  -11.3932 H           1 ACT       0.0551
     54 H20       -13.4757    7.9112  -10.1613 H           1 ACT       0.0551
     55 H21       -12.4102    4.9949  -12.7500 H           1 ACT       0.1814
     56 H22       -11.4139    6.3410  -12.6309 H           1 ACT       0.1814
     57 H23        -8.6984    7.3113  -11.3979 H           1 ACT       0.1815
     58 H24       -10.0465    8.2932  -11.5700 H           1 ACT       0.1815
@<TRIPOS>BOND
     1     1     2   2
     2     1     3   1
     3     4     1  am
     4     5     4   1
     5     6     5   1
     6     5     8   1
     7     6     7   2
     8    25     6  am
     9     8     9   1
    10     9    10  ar
    11     9    11  ar
    12    10    12  ar
    13    11    13  ar
    14    12    14  ar
    15    13    14  ar
    16    14    15   1
    17    15    16   1
    18    16    17  ar
    19    16    18  ar
    20    16    19  ar
    21    21    20   1
    22    22    20   1
    23    22    21   1
    24    22    23   1
    25    22    25   1
    26    23    24   2
    27    23    26  am
    28    26    27   1
    29    27    28   1
    30    27    30   1
    31    28    29   2
    32    28    34  am
    33    30    31   1
    34    31    32   2
    35    31    33  am
    36     3    35   1
    37     3    36   1
    38     3    37   1
    39     4    38   1
    40     5    39   1
    41     8    40   1
    42     8    41   1
    43    10    42   1
    44    11    43   1
    45    12    44   1
    46    13    45   1
    47    20    46   1
    48    20    47   1
    49    21    48   1
    50    21    49   1
    51    25    50   1
    52    26    51   1
    53    27    52   1
    54    30    53   1
    55    30    54   1
    56    33    55   1
    57    33    56   1
    58    34    57   1
    59    34    58   1
@<TRIPOS>SUBSTRUCTURE
     1  ACT      1

