@<TRIPOS>MOLECULE
3ov1_ligand_061
    58    59
SMALL
GAST_HUCK
****
This file was generated by PARSER (from files_GN.cpp)

@<TRIPOS>ATOM
      1 C         -10.0569    9.7482   -1.3960 C.2         1 ACT       0.1753
      2 O          -9.0485   10.0115   -2.0409 O.2         1 ACT      -0.3972
      3 CH3       -10.4809    8.3684   -1.3396 C.3         1 ACT       0.0258
      4 N         -10.8387   10.6852   -0.8889 N.am        1 ACT      -0.2628
      5 CA        -10.7069   12.1153   -1.0053 C.3         1 ACT       0.1465
      6 C         -10.8669   12.7425    0.3070 C.2         1 ACT       0.2045
      7 O         -10.0937   13.6404    0.6040 O.2         1 ACT      -0.3944
      8 CB        -11.7490   12.6619   -2.0408 C.3         1 ACT       0.0400
      9 CG        -11.2652   12.6173   -3.4597 C.ar        1 ACT      -0.0004
     10 CD1       -11.0687   13.8074   -4.1966 C.ar        1 ACT      -0.0239
     11 CD2       -10.9719   11.3855   -4.0873 C.ar        1 ACT      -0.0239
     12 CE1       -10.5949   13.7649   -5.5226 C.ar        1 ACT       0.0115
     13 CE2       -10.4733   11.3422   -5.3984 C.ar        1 ACT       0.0115
     14 CZ        -10.3034   12.5353   -6.1408 C.ar        1 ACT       0.1728
     15 OH         -9.7908   12.5691   -7.4136 O.3         1 ACT      -0.2040
     16 P         -10.6739   11.9539   -8.5352 P.3         1 ACT       0.1348
     17 O1P       -12.0998   12.1081   -8.3364 O.co2       1 ACT      -0.6653
     18 O2P       -10.3351   12.5815   -9.7917 O.co2       1 ACT      -0.6653
     19 O3P       -10.3661   10.5485   -8.6776 O.co2       1 ACT      -0.6653
     20 CB        -12.7582   14.5163    2.2166 C.3         1 ACT      -0.0184
     21 CG        -13.7124   13.3747    2.5348 C.3         1 ACT      -0.0184
     22 CA        -12.2129   13.0803    2.3478 C.3         1 ACT       0.1329
     23 C         -11.3944   12.8397    3.5274 C.2         1 ACT       0.2267
     24 O         -11.8670   12.2288    4.4624 O.2         1 ACT      -0.3419
     25 N         -11.8760   12.4276    1.1116 N.am        1 ACT      -0.2738
     26 N         -10.1604   13.3371    3.5533 N.am        1 ACT      -0.2608
     27 CA         -9.2300   13.3165    4.6435 C.3         1 ACT       0.1474
     28 C          -8.1865   14.2814    4.2869 C.2         1 ACT       0.2017
     29 O          -8.4310   15.4763    4.3388 O.2         1 ACT      -0.3945
     30 CB         -8.6608   11.8950    4.9825 C.3         1 ACT       0.0774
     31 CG         -9.5480   10.9975    5.7073 C.2         1 ACT       0.1781
     32 OD1       -10.1658   11.3738    6.6877 O.2         1 ACT      -0.3970
     33 ND2        -9.5815    9.7077    5.4337 N.am        1 ACT      -0.3007
     34 N          -7.0183   13.9463    3.7836 N.am        1 ACT      -0.2988
     35 H1        -11.3358    8.2306   -0.6746 H           1 ACT       0.0467
     36 H2         -9.6614    7.7416   -0.9864 H           1 ACT       0.0467
     37 H3        -10.7745    8.0411   -2.3403 H           1 ACT       0.0467
     38 H4        -11.6391   10.3723   -0.4348 H           1 ACT       0.1885
     39 H5         -9.7092   12.3690   -1.3805 H           1 ACT       0.0840
     40 H6        -12.0027   13.6972   -1.7875 H           1 ACT       0.0584
     41 H7        -12.6871   12.0997   -1.9755 H           1 ACT       0.0584
     42 H8        -11.2512   14.7175   -3.7720 H           1 ACT       0.0703
     43 H9        -11.1139   10.5041   -3.5937 H           1 ACT       0.0703
     44 H10       -10.4551   14.6396   -6.0315 H           1 ACT       0.0736
     45 H11       -10.2441   10.4398   -5.8226 H           1 ACT       0.0736
     46 H12       -12.5885   15.2117    3.0464 H           1 ACT       0.0276
     47 H13       -12.8717   14.9284    1.2091 H           1 ACT       0.0276
     48 H14       -14.3820   13.0955    1.7142 H           1 ACT       0.0276
     49 H15       -14.1155   13.3801    3.5533 H           1 ACT       0.0276
     50 H16       -12.4653   11.7056    0.8542 H           1 ACT       0.1839
     51 H17        -9.8927   13.8388    2.7703 H           1 ACT       0.1891
     52 H18        -9.7281   13.7111    5.5378 H           1 ACT       0.0828
     53 H19        -7.7773   12.0151    5.6133 H           1 ACT       0.0551
     54 H20        -8.3302   11.4230    4.0525 H           1 ACT       0.0551
     55 H21       -10.1311    9.1134    5.9685 H           1 ACT       0.1814
     56 H22        -9.0269    9.3501    4.7253 H           1 ACT       0.1814
     57 H23        -6.3875   14.6341    3.5223 H           1 ACT       0.1815
     58 H24        -6.7790   13.0092    3.6585 H           1 ACT       0.1815
@<TRIPOS>BOND
     1     1     2   2
     2     1     3   1
     3     4     1  am
     4     5     4   1
     5     6     5   1
     6     5     8   1
     7     6     7   2
     8    25     6  am
     9     8     9   1
    10     9    10  ar
    11     9    11  ar
    12    10    12  ar
    13    11    13  ar
    14    12    14  ar
    15    13    14  ar
    16    14    15   1
    17    15    16   1
    18    16    17  ar
    19    16    18  ar
    20    16    19  ar
    21    21    20   1
    22    22    20   1
    23    22    21   1
    24    22    23   1
    25    22    25   1
    26    23    24   2
    27    23    26  am
    28    26    27   1
    29    27    28   1
    30    27    30   1
    31    28    29   2
    32    28    34  am
    33    30    31   1
    34    31    32   2
    35    31    33  am
    36     3    35   1
    37     3    36   1
    38     3    37   1
    39     4    38   1
    40     5    39   1
    41     8    40   1
    42     8    41   1
    43    10    42   1
    44    11    43   1
    45    12    44   1
    46    13    45   1
    47    20    46   1
    48    20    47   1
    49    21    48   1
    50    21    49   1
    51    25    50   1
    52    26    51   1
    53    27    52   1
    54    30    53   1
    55    30    54   1
    56    33    55   1
    57    33    56   1
    58    34    57   1
    59    34    58   1
@<TRIPOS>SUBSTRUCTURE
     1  ACT      1

