@<TRIPOS>MOLECULE
3ov1_ligand_034
    58    59
SMALL
GAST_HUCK
****
This file was generated by PARSER (from files_GN.cpp)

@<TRIPOS>ATOM
      1 C         -16.7768   12.8661    3.6840 C.2         1 ACT       0.1753
      2 O         -16.2564   12.1115    4.4876 O.2         1 ACT      -0.3972
      3 CH3       -17.7419   12.3087    2.7643 C.3         1 ACT       0.0258
      4 N         -16.4824   14.1641    3.6331 N.am        1 ACT      -0.2628
      5 CA        -15.5103   14.9011    4.3994 C.3         1 ACT       0.1465
      6 C         -14.1995   14.8445    3.7419 C.2         1 ACT       0.2045
      7 O         -13.5868   15.8807    3.5554 O.2         1 ACT      -0.3944
      8 CB        -15.4313   14.5726    5.9341 C.3         1 ACT       0.0400
      9 CG        -15.3084   15.7148    6.8907 C.ar        1 ACT      -0.0004
     10 CD1       -16.1018   15.7702    8.0606 C.ar        1 ACT      -0.0239
     11 CD2       -14.3785   16.7665    6.6884 C.ar        1 ACT      -0.0239
     12 CE1       -15.9963   16.8361    8.9728 C.ar        1 ACT       0.0115
     13 CE2       -14.3019   17.8538    7.5715 C.ar        1 ACT       0.0115
     14 CZ        -15.0899   17.8878    8.7428 C.ar        1 ACT       0.1728
     15 OH        -15.0726   18.9208    9.6470 O.3         1 ACT      -0.2040
     16 P         -13.7083   19.3002   10.3068 P.3         1 ACT       0.1348
     17 O1P       -12.9576   20.1502    9.4318 O.co2       1 ACT      -0.6653
     18 O2P       -13.9569   20.0612   11.4981 O.co2       1 ACT      -0.6653
     19 O3P       -12.8864   18.1649   10.6587 O.co2       1 ACT      -0.6653
     20 CB        -12.4168   12.8899    1.3092 C.3         1 ACT      -0.0184
     21 CG        -12.0922   14.3774    1.4493 C.3         1 ACT      -0.0184
     22 CA        -12.3827   13.5372    2.7134 C.3         1 ACT       0.1329
     23 C         -11.2477   13.2552    3.5721 C.2         1 ACT       0.2267
     24 O         -10.7872   14.1805    4.2232 O.2         1 ACT      -0.3419
     25 N         -13.6672   13.6963    3.3358 N.am        1 ACT      -0.2738
     26 N         -10.7896   12.0118    3.6799 N.am        1 ACT      -0.2608
     27 CA         -9.7049   11.4929    4.4723 C.3         1 ACT       0.1474
     28 C         -10.0083   11.5096    5.9020 C.2         1 ACT       0.2017
     29 O         -10.1799   12.5592    6.5050 O.2         1 ACT      -0.3945
     30 CB         -8.2883   12.0318    4.0772 C.3         1 ACT       0.0774
     31 CG         -7.9196   13.3671    4.5170 C.2         1 ACT       0.1781
     32 OD1        -7.8274   14.2886    3.7171 O.2         1 ACT      -0.3970
     33 ND2        -7.5762   13.6051    5.7642 N.am        1 ACT      -0.3007
     34 N         -10.1484   10.3988    6.5932 N.am        1 ACT      -0.2988
     35 H1        -18.0546   13.0334    2.0111 H           1 ACT       0.0467
     36 H2        -18.6221   11.9836    3.3175 H           1 ACT       0.0467
     37 H3        -17.3090   11.4473    2.2512 H           1 ACT       0.0467
     38 H4        -16.9905   14.6834    2.9905 H           1 ACT       0.1885
     39 H5        -15.8697   15.9329    4.3210 H           1 ACT       0.0840
     40 H6        -14.6023   13.8879    6.1242 H           1 ACT       0.0584
     41 H7        -16.3363   14.0247    6.1948 H           1 ACT       0.0584
     42 H8        -16.7668   15.0247    8.2666 H           1 ACT       0.0703
     43 H9        -13.7565   16.7644    5.8902 H           1 ACT       0.0703
     44 H10       -16.5882   16.8459    9.8063 H           1 ACT       0.0736
     45 H11       -13.6616   18.6245    7.3636 H           1 ACT       0.0736
     46 H12       -11.5681   12.2745    0.9957 H           1 ACT       0.0276
     47 H13       -13.4007   12.6803    0.8840 H           1 ACT       0.0276
     48 H14       -12.8799   15.0481    1.1061 H           1 ACT       0.0276
     49 H15       -11.0527   14.6455    1.2505 H           1 ACT       0.0276
     50 H16       -14.1784   12.8879    3.4739 H           1 ACT       0.1839
     51 H17       -11.2541   11.3497    3.1418 H           1 ACT       0.1891
     52 H18        -9.6723   10.4377    4.1733 H           1 ACT       0.0828
     53 H19        -8.2127   11.9822    2.9859 H           1 ACT       0.0551
     54 H20        -7.5321   11.3400    4.4626 H           1 ACT       0.0551
     55 H21        -7.3095   14.4980    6.0334 H           1 ACT       0.1814
     56 H22        -7.5846   12.8859    6.4175 H           1 ACT       0.1814
     57 H23       -10.3583   10.4397    7.5395 H           1 ACT       0.1815
     58 H24       -10.0460    9.5351    6.1600 H           1 ACT       0.1815
@<TRIPOS>BOND
     1     1     2   2
     2     1     3   1
     3     4     1  am
     4     5     4   1
     5     6     5   1
     6     5     8   1
     7     6     7   2
     8    25     6  am
     9     8     9   1
    10     9    10  ar
    11     9    11  ar
    12    10    12  ar
    13    11    13  ar
    14    12    14  ar
    15    13    14  ar
    16    14    15   1
    17    15    16   1
    18    16    17  ar
    19    16    18  ar
    20    16    19  ar
    21    21    20   1
    22    22    20   1
    23    22    21   1
    24    22    23   1
    25    22    25   1
    26    23    24   2
    27    23    26  am
    28    26    27   1
    29    27    28   1
    30    27    30   1
    31    28    29   2
    32    28    34  am
    33    30    31   1
    34    31    32   2
    35    31    33  am
    36     3    35   1
    37     3    36   1
    38     3    37   1
    39     4    38   1
    40     5    39   1
    41     8    40   1
    42     8    41   1
    43    10    42   1
    44    11    43   1
    45    12    44   1
    46    13    45   1
    47    20    46   1
    48    20    47   1
    49    21    48   1
    50    21    49   1
    51    25    50   1
    52    26    51   1
    53    27    52   1
    54    30    53   1
    55    30    54   1
    56    33    55   1
    57    33    56   1
    58    34    57   1
    59    34    58   1
@<TRIPOS>SUBSTRUCTURE
     1  ACT      1

