@<TRIPOS>MOLECULE
3ov1_ligand_063
    58    59
SMALL
GAST_HUCK
****
This file was generated by PARSER (from files_GN.cpp)

@<TRIPOS>ATOM
      1 C         -15.4389   16.0465    3.2480 C.2         1 ACT       0.1753
      2 O         -15.3776   15.0856    2.4852 O.2         1 ACT      -0.3972
      3 CH3       -16.2325   17.1874    2.8428 C.3         1 ACT       0.0258
      4 N         -14.8410   16.0497    4.4329 N.am        1 ACT      -0.2628
      5 CA        -13.9911   15.0478    5.0369 C.3         1 ACT       0.1465
      6 C         -12.7729   14.7932    4.2537 C.2         1 ACT       0.2045
      7 O         -11.7141   15.3031    4.6218 O.2         1 ACT      -0.3944
      8 CB        -14.7347   13.7682    5.5685 C.3         1 ACT       0.0400
      9 CG        -15.8343   13.2386    4.7146 C.ar        1 ACT      -0.0004
     10 CD1       -17.1461   13.7567    4.8452 C.ar        1 ACT      -0.0239
     11 CD2       -15.6032   12.2163    3.7647 C.ar        1 ACT      -0.0239
     12 CE1       -18.1756   13.3282    3.9880 C.ar        1 ACT       0.0115
     13 CE2       -16.6411   11.7703    2.9199 C.ar        1 ACT       0.0115
     14 CZ        -17.9244   12.3607    2.9958 C.ar        1 ACT       0.1728
     15 OH        -18.9600   11.9692    2.1847 O.3         1 ACT      -0.2040
     16 P         -18.7218   12.2363    0.6707 P.3         1 ACT       0.1348
     17 O1P       -17.6870   11.3507    0.1897 O.co2       1 ACT      -0.6653
     18 O2P       -19.9365   11.8904   -0.0214 O.co2       1 ACT      -0.6653
     19 O3P       -18.3983   13.6040    0.3550 O.co2       1 ACT      -0.6653
     20 CB        -12.1659   13.1300    0.9421 C.3         1 ACT      -0.0184
     21 CG        -11.8282   14.6256    0.9164 C.3         1 ACT      -0.0184
     22 CA        -11.7195   13.8365    2.2437 C.3         1 ACT       0.1329
     23 C         -10.4268   13.3695    2.7379 C.2         1 ACT       0.2267
     24 O          -9.3785   13.8253    2.2846 O.2         1 ACT      -0.3419
     25 N         -12.8190   14.0587    3.1477 N.am        1 ACT      -0.2738
     26 N         -10.4091   12.4834    3.7290 N.am        1 ACT      -0.2608
     27 CA         -9.2699   11.8409    4.3243 C.3         1 ACT       0.1474
     28 C          -9.7605   11.0426    5.4431 C.2         1 ACT       0.2017
     29 O         -10.4791   11.5384    6.3022 O.2         1 ACT      -0.3945
     30 CB         -8.0942   12.7725    4.7724 C.3         1 ACT       0.0774
     31 CG         -8.4712   13.9211    5.5765 C.2         1 ACT       0.1781
     32 OD1        -8.9653   14.9062    5.0445 O.2         1 ACT      -0.3970
     33 ND2        -8.2125   13.9737    6.8675 N.am        1 ACT      -0.3007
     34 N          -9.4595    9.7697    5.5702 N.am        1 ACT      -0.2988
     35 H1        -16.1783   18.0048    3.5749 H           1 ACT       0.0467
     36 H2        -17.2785   16.8847    2.7354 H           1 ACT       0.0467
     37 H3        -15.8627   17.5579    1.8824 H           1 ACT       0.0467
     38 H4        -14.9630   16.8558    4.9671 H           1 ACT       0.1885
     39 H5        -13.6589   15.5444    5.9559 H           1 ACT       0.0840
     40 H6        -15.1754   14.0014    6.5489 H           1 ACT       0.0584
     41 H7        -14.0008   12.9771    5.7618 H           1 ACT       0.0584
     42 H8        -17.3532   14.4799    5.5412 H           1 ACT       0.0703
     43 H9        -14.6707   11.8077    3.6623 H           1 ACT       0.0703
     44 H10       -19.1084   13.7399    4.0738 H           1 ACT       0.0736
     45 H11       -16.4544   11.0375    2.2302 H           1 ACT       0.0736
     46 H12       -11.4439   12.5037    0.4140 H           1 ACT       0.0276
     47 H13       -13.2291   12.9058    0.8242 H           1 ACT       0.0276
     48 H14       -12.6886   15.2876    0.8042 H           1 ACT       0.0276
     49 H15       -10.9058   14.8716    0.3850 H           1 ACT       0.0276
     50 H16       -13.6854   13.6866    2.8956 H           1 ACT       0.1839
     51 H17       -11.2802   12.2048    4.0617 H           1 ACT       0.1891
     52 H18        -8.8462   11.1676    3.5727 H           1 ACT       0.0828
     53 H19        -7.5641   13.1397    3.8863 H           1 ACT       0.0551
     54 H20        -7.3650   12.1671    5.3198 H           1 ACT       0.0551
     55 H21        -8.4099   14.7786    7.3718 H           1 ACT       0.1814
     56 H22        -7.8280   13.2050    7.3217 H           1 ACT       0.1814
     57 H23        -9.8253    9.2598    6.3080 H           1 ACT       0.1815
     58 H24        -8.8616    9.3436    4.9348 H           1 ACT       0.1815
@<TRIPOS>BOND
     1     1     2   2
     2     1     3   1
     3     4     1  am
     4     5     4   1
     5     6     5   1
     6     5     8   1
     7     6     7   2
     8    25     6  am
     9     8     9   1
    10     9    10  ar
    11     9    11  ar
    12    10    12  ar
    13    11    13  ar
    14    12    14  ar
    15    13    14  ar
    16    14    15   1
    17    15    16   1
    18    16    17  ar
    19    16    18  ar
    20    16    19  ar
    21    21    20   1
    22    22    20   1
    23    22    21   1
    24    22    23   1
    25    22    25   1
    26    23    24   2
    27    23    26  am
    28    26    27   1
    29    27    28   1
    30    27    30   1
    31    28    29   2
    32    28    34  am
    33    30    31   1
    34    31    32   2
    35    31    33  am
    36     3    35   1
    37     3    36   1
    38     3    37   1
    39     4    38   1
    40     5    39   1
    41     8    40   1
    42     8    41   1
    43    10    42   1
    44    11    43   1
    45    12    44   1
    46    13    45   1
    47    20    46   1
    48    20    47   1
    49    21    48   1
    50    21    49   1
    51    25    50   1
    52    26    51   1
    53    27    52   1
    54    30    53   1
    55    30    54   1
    56    33    55   1
    57    33    56   1
    58    34    57   1
    59    34    58   1
@<TRIPOS>SUBSTRUCTURE
     1  ACT      1

