@<TRIPOS>MOLECULE
3ov1_ligand_082
    58    59
SMALL
GAST_HUCK
****
This file was generated by PARSER (from files_GN.cpp)

@<TRIPOS>ATOM
      1 C         -11.0339    9.1390   -2.4328 C.2         1 ACT       0.1753
      2 O         -11.9679    9.8397   -2.8098 O.2         1 ACT      -0.3972
      3 CH3       -11.2493    8.2234   -1.3382 C.3         1 ACT       0.0258
      4 N          -9.8560    9.1851   -3.0380 N.am        1 ACT      -0.2628
      5 CA         -9.4889   10.0391   -4.1408 C.3         1 ACT       0.1465
      6 C         -10.3612    9.8833   -5.3074 C.2         1 ACT       0.2045
      7 O         -11.2208    9.0102   -5.3199 O.2         1 ACT      -0.3944
      8 CB         -7.9647    9.8309   -4.4647 C.3         1 ACT       0.0400
      9 CG         -7.1256   11.0594   -4.3421 C.ar        1 ACT      -0.0004
     10 CD1        -6.1301   11.3678   -5.3016 C.ar        1 ACT      -0.0239
     11 CD2        -7.2612   11.9164   -3.2216 C.ar        1 ACT      -0.0239
     12 CE1        -5.2954   12.4912   -5.1462 C.ar        1 ACT       0.0115
     13 CE2        -6.4318   13.0466   -3.0687 C.ar        1 ACT       0.0115
     14 CZ         -5.4442   13.3420   -4.0322 C.ar        1 ACT       0.1728
     15 OH         -4.5377   14.3582   -3.8645 O.3         1 ACT      -0.2040
     16 P          -5.1349   15.7408   -3.4788 P.3         1 ACT       0.1348
     17 O1P        -4.0756   16.7109   -3.5803 O.co2       1 ACT      -0.6653
     18 O2P        -6.2026   16.1662   -4.3537 O.co2       1 ACT      -0.6653
     19 O3P        -5.5935   15.7284   -2.1083 O.co2       1 ACT      -0.6653
     20 CB        -12.4924   11.5636   -7.0427 C.3         1 ACT      -0.0184
     21 CG        -11.4439   12.3551   -7.8224 C.3         1 ACT      -0.0184
     22 CA        -11.1524   10.8965   -7.4121 C.3         1 ACT       0.1329
     23 C         -11.2677    9.8405   -8.4047 C.2         1 ACT       0.2267
     24 O         -11.6436    8.7270   -8.0512 O.2         1 ACT      -0.3419
     25 N         -10.2414   10.7488   -6.3127 N.am        1 ACT      -0.2738
     26 N         -10.9586   10.0711   -9.6769 N.am        1 ACT      -0.2608
     27 CA        -11.0475    9.1910  -10.8155 C.3         1 ACT       0.1474
     28 C         -12.4296    8.9238  -11.2161 C.2         1 ACT       0.2017
     29 O         -12.8150    9.1563  -12.3573 O.2         1 ACT      -0.3945
     30 CB        -10.1689    7.9022  -10.6440 C.3         1 ACT       0.0774
     31 CG         -9.2875    7.6586  -11.7742 C.2         1 ACT       0.1781
     32 OD1        -8.4302    8.4774  -12.0697 O.2         1 ACT      -0.3970
     33 ND2        -9.3906    6.5776  -12.5139 N.am        1 ACT      -0.3007
     34 N         -13.3109    8.3848  -10.3994 N.am        1 ACT      -0.2988
     35 H1        -10.3089    7.7909   -0.9889 H           1 ACT       0.0467
     36 H2        -11.9086    7.4167   -1.6628 H           1 ACT       0.0467
     37 H3        -11.7123    8.7544   -0.5074 H           1 ACT       0.0467
     38 H4         -9.1678    8.5974   -2.6767 H           1 ACT       0.1885
     39 H5         -9.6402   11.0600   -3.7819 H           1 ACT       0.0840
     40 H6         -7.8453    9.3967   -5.4598 H           1 ACT       0.0584
     41 H7         -7.5186    9.0954   -3.7860 H           1 ACT       0.0584
     42 H8         -5.9920   10.7611   -6.1124 H           1 ACT       0.0703
     43 H9         -7.9551   11.7121   -2.5002 H           1 ACT       0.0703
     44 H10        -4.5720   12.6821   -5.8453 H           1 ACT       0.0736
     45 H11        -6.5425   13.6633   -2.2601 H           1 ACT       0.0736
     46 H12       -13.3785   11.3155   -7.6290 H           1 ACT       0.0276
     47 H13       -12.6275   11.9199   -6.0227 H           1 ACT       0.0276
     48 H14       -10.9337   13.1313   -7.2560 H           1 ACT       0.0276
     49 H15       -11.7192   12.5597   -8.8535 H           1 ACT       0.0276
     50 H16        -9.5389   11.4205   -6.2386 H           1 ACT       0.1839
     51 H17       -10.6247   10.9643   -9.8730 H           1 ACT       0.1891
     52 H18       -10.6190    9.8032  -11.6168 H           1 ACT       0.0828
     53 H19       -10.7992    7.0276  -10.4723 H           1 ACT       0.0551
     54 H20        -9.5355    7.9953   -9.7559 H           1 ACT       0.0551
     55 H21        -8.8012    6.4561  -13.2769 H           1 ACT       0.1814
     56 H22       -10.0437    5.8908  -12.2911 H           1 ACT       0.1814
     57 H23       -14.2140    8.1941  -10.7122 H           1 ACT       0.1815
     58 H24       -13.0604    8.1620   -9.4866 H           1 ACT       0.1815
@<TRIPOS>BOND
     1     1     2   2
     2     1     3   1
     3     4     1  am
     4     5     4   1
     5     6     5   1
     6     5     8   1
     7     6     7   2
     8    25     6  am
     9     8     9   1
    10     9    10  ar
    11     9    11  ar
    12    10    12  ar
    13    11    13  ar
    14    12    14  ar
    15    13    14  ar
    16    14    15   1
    17    15    16   1
    18    16    17  ar
    19    16    18  ar
    20    16    19  ar
    21    21    20   1
    22    22    20   1
    23    22    21   1
    24    22    23   1
    25    22    25   1
    26    23    24   2
    27    23    26  am
    28    26    27   1
    29    27    28   1
    30    27    30   1
    31    28    29   2
    32    28    34  am
    33    30    31   1
    34    31    32   2
    35    31    33  am
    36     3    35   1
    37     3    36   1
    38     3    37   1
    39     4    38   1
    40     5    39   1
    41     8    40   1
    42     8    41   1
    43    10    42   1
    44    11    43   1
    45    12    44   1
    46    13    45   1
    47    20    46   1
    48    20    47   1
    49    21    48   1
    50    21    49   1
    51    25    50   1
    52    26    51   1
    53    27    52   1
    54    30    53   1
    55    30    54   1
    56    33    55   1
    57    33    56   1
    58    34    57   1
    59    34    58   1
@<TRIPOS>SUBSTRUCTURE
     1  ACT      1

