@<TRIPOS>MOLECULE
3ov1_ligand_097
    58    59
SMALL
GAST_HUCK
****
This file was generated by PARSER (from files_GN.cpp)

@<TRIPOS>ATOM
      1 C         -15.1351   13.3443    5.1044 C.2         1 ACT       0.1753
      2 O         -15.9999   13.9752    4.4990 O.2         1 ACT      -0.3972
      3 CH3       -15.3880   12.9967    6.4860 C.3         1 ACT       0.0258
      4 N         -14.0149   12.9630    4.5091 N.am        1 ACT      -0.2628
      5 CA        -13.6331   13.2211    3.1445 C.3         1 ACT       0.1465
      6 C         -14.5598   12.6001    2.1952 C.2         1 ACT       0.2045
      7 O         -15.2074   11.6060    2.5186 O.2         1 ACT      -0.3944
      8 CB        -12.1564   12.7539    2.9292 C.3         1 ACT       0.0400
      9 CG        -11.5667   13.1721    1.6278 C.ar        1 ACT      -0.0004
     10 CD1       -11.3358   12.2357    0.5919 C.ar        1 ACT      -0.0239
     11 CD2       -11.2195   14.5242    1.4087 C.ar        1 ACT      -0.0239
     12 CE1       -10.8068   12.6503   -0.6479 C.ar        1 ACT       0.0115
     13 CE2       -10.6765   14.9343    0.1797 C.ar        1 ACT       0.0115
     14 CZ        -10.4556   14.0030   -0.8571 C.ar        1 ACT       0.1728
     15 OH        -10.0570   14.4470   -2.0909 O.3         1 ACT      -0.2040
     16 P          -8.5533   14.2197   -2.4241 P.3         1 ACT       0.1348
     17 O1P        -8.2242   12.8140   -2.4692 O.co2       1 ACT      -0.6653
     18 O2P        -8.3203   14.7244   -3.7557 O.co2       1 ACT      -0.6653
     19 O3P        -7.6438   14.9052   -1.5394 O.co2       1 ACT      -0.6653
     20 CB        -15.0800   13.1778   -1.4632 C.3         1 ACT      -0.0184
     21 CG        -14.8106   11.7037   -1.1480 C.3         1 ACT      -0.0184
     22 CA        -15.4854   12.5951   -0.0881 C.3         1 ACT       0.1329
     23 C         -16.9230   12.5318    0.1161 C.2         1 ACT       0.2267
     24 O         -17.5119   11.4738   -0.0621 O.2         1 ACT      -0.3419
     25 N         -14.6595   13.1024    0.9697 N.am        1 ACT      -0.2738
     26 N         -17.5537   13.6192    0.5344 N.am        1 ACT      -0.2608
     27 CA        -18.9671   13.7809    0.7519 C.3         1 ACT       0.1474
     28 C         -19.2083   15.1827    1.0853 C.2         1 ACT       0.2017
     29 O         -19.5548   15.5578    2.1952 O.2         1 ACT      -0.3945
     30 CB        -19.5804   12.7694    1.7775 C.3         1 ACT       0.0774
     31 CG        -18.8496   12.6378    3.0267 C.2         1 ACT       0.1781
     32 OD1       -17.8967   11.8683    3.1023 O.2         1 ACT      -0.3970
     33 ND2       -19.2296   13.2584    4.1210 N.am        1 ACT      -0.3007
     34 N         -19.0597   16.1180    0.1709 N.am        1 ACT      -0.2988
     35 H1        -14.5282   12.5066    6.9469 H           1 ACT       0.0467
     36 H2        -16.2357   12.3141    6.5248 H           1 ACT       0.0467
     37 H3        -15.6184   13.8928    7.0627 H           1 ACT       0.0467
     38 H4        -13.3702   12.4940    5.0655 H           1 ACT       0.1885
     39 H5        -13.6773   14.3101    3.0161 H           1 ACT       0.0840
     40 H6        -12.1198   11.6650    3.0401 H           1 ACT       0.0584
     41 H7        -11.5276   13.1588    3.7305 H           1 ACT       0.0584
     42 H8        -11.5865   11.2526    0.7237 H           1 ACT       0.0703
     43 H9        -11.3701   15.2223    2.1390 H           1 ACT       0.0703
     44 H10       -10.6891   11.9704   -1.3983 H           1 ACT       0.0736
     45 H11       -10.4514   15.9196    0.0294 H           1 ACT       0.0736
     46 H12       -15.8476   13.3121   -2.2298 H           1 ACT       0.0276
     47 H13       -14.1639   13.7686   -1.5322 H           1 ACT       0.0276
     48 H14       -13.7596   11.4549   -0.9941 H           1 ACT       0.0276
     49 H15       -15.4417   11.0053   -1.7040 H           1 ACT       0.0276
     50 H16       -14.1041   13.8748    0.7520 H           1 ACT       0.1839
     51 H17       -16.9960   14.4046    0.6925 H           1 ACT       0.1891
     52 H18       -19.4788   13.5910   -0.1987 H           1 ACT       0.0828
     53 H19       -19.6476   11.7764    1.3159 H           1 ACT       0.0551
     54 H20       -20.6163   13.0668    1.9864 H           1 ACT       0.0551
     55 H21       -18.7436   13.0997    4.9489 H           1 ACT       0.1814
     56 H22       -19.9961   13.8595    4.1099 H           1 ACT       0.1814
     57 H23       -19.2264   17.0495    0.3983 H           1 ACT       0.1815
     58 H24       -18.7884   15.8794   -0.7318 H           1 ACT       0.1815
@<TRIPOS>BOND
     1     1     2   2
     2     1     3   1
     3     4     1  am
     4     5     4   1
     5     6     5   1
     6     5     8   1
     7     6     7   2
     8    25     6  am
     9     8     9   1
    10     9    10  ar
    11     9    11  ar
    12    10    12  ar
    13    11    13  ar
    14    12    14  ar
    15    13    14  ar
    16    14    15   1
    17    15    16   1
    18    16    17  ar
    19    16    18  ar
    20    16    19  ar
    21    21    20   1
    22    22    20   1
    23    22    21   1
    24    22    23   1
    25    22    25   1
    26    23    24   2
    27    23    26  am
    28    26    27   1
    29    27    28   1
    30    27    30   1
    31    28    29   2
    32    28    34  am
    33    30    31   1
    34    31    32   2
    35    31    33  am
    36     3    35   1
    37     3    36   1
    38     3    37   1
    39     4    38   1
    40     5    39   1
    41     8    40   1
    42     8    41   1
    43    10    42   1
    44    11    43   1
    45    12    44   1
    46    13    45   1
    47    20    46   1
    48    20    47   1
    49    21    48   1
    50    21    49   1
    51    25    50   1
    52    26    51   1
    53    27    52   1
    54    30    53   1
    55    30    54   1
    56    33    55   1
    57    33    56   1
    58    34    57   1
    59    34    58   1
@<TRIPOS>SUBSTRUCTURE
     1  ACT      1

