@<TRIPOS>MOLECULE
3ov1_ligand_070
    58    59
SMALL
GAST_HUCK
****
This file was generated by PARSER (from files_GN.cpp)

@<TRIPOS>ATOM
      1 C          -7.2894   15.8884   -3.1044 C.2         1 ACT       0.1753
      2 O          -6.5470   15.7187   -4.0679 O.2         1 ACT      -0.3972
      3 CH3        -6.9888   16.9792   -2.2054 C.3         1 ACT       0.0258
      4 N          -8.3526   15.1312   -2.8915 N.am        1 ACT      -0.2628
      5 CA         -8.7950   13.9832   -3.6400 C.3         1 ACT       0.1465
      6 C         -10.0623   14.2694   -4.3171 C.2         1 ACT       0.2045
      7 O         -10.1375   14.0385   -5.5267 O.2         1 ACT      -0.3944
      8 CB         -8.8873   12.7731   -2.6633 C.3         1 ACT       0.0400
      9 CG         -9.1508   11.4694   -3.3340 C.ar        1 ACT      -0.0004
     10 CD1       -10.3990   10.8231   -3.1877 C.ar        1 ACT      -0.0239
     11 CD2        -8.1779   10.8808   -4.1768 C.ar        1 ACT      -0.0239
     12 CE1       -10.6663    9.6242   -3.8711 C.ar        1 ACT       0.0115
     13 CE2        -8.4439    9.6722   -4.8544 C.ar        1 ACT       0.0115
     14 CZ         -9.7205    9.0750   -4.7600 C.ar        1 ACT       0.1728
     15 OH        -10.0862    7.9517   -5.4608 O.3         1 ACT      -0.2040
     16 P         -10.4752    8.1968   -6.9548 P.3         1 ACT       0.1348
     17 O1P       -11.5624    7.2995   -7.2733 O.co2       1 ACT      -0.6653
     18 O2P       -10.9047    9.5385   -7.2804 O.co2       1 ACT      -0.6653
     19 O3P        -9.3737    7.8283   -7.8116 O.co2       1 ACT      -0.6653
     20 CB        -12.5907   16.6597   -4.3098 C.3         1 ACT      -0.0184
     21 CG        -12.4500   15.8426   -5.5968 C.3         1 ACT      -0.0184
     22 CA        -12.3693   15.1290   -4.2239 C.3         1 ACT       0.1329
     23 C         -13.5038   14.3340   -3.8088 C.2         1 ACT       0.2267
     24 O         -13.6967   13.2781   -4.4037 O.2         1 ACT      -0.3419
     25 N         -11.1002   14.7784   -3.6560 N.am        1 ACT      -0.2738
     26 N         -14.2394   14.7128   -2.7679 N.am        1 ACT      -0.2608
     27 CA        -15.3173   14.0117   -2.1146 C.3         1 ACT       0.1474
     28 C         -14.8599   12.7375   -1.5563 C.2         1 ACT       0.2017
     29 O         -14.4469   11.8359   -2.2705 O.2         1 ACT      -0.3945
     30 CB        -16.6193   13.8599   -2.9743 C.3         1 ACT       0.0774
     31 CG        -17.6515   14.8710   -2.7829 C.2         1 ACT       0.1781
     32 OD1       -17.4494   15.9282   -2.1942 O.2         1 ACT      -0.3970
     33 ND2       -18.8727   14.6424   -3.2106 N.am        1 ACT      -0.3007
     34 N         -14.8882   12.5160   -0.2580 N.am        1 ACT      -0.2988
     35 H1         -7.6784   17.0046   -1.3541 H           1 ACT       0.0467
     36 H2         -7.0683   17.9273   -2.7419 H           1 ACT       0.0467
     37 H3         -5.9703   16.8745   -1.8156 H           1 ACT       0.0467
     38 H4         -8.8964   15.3691   -2.1237 H           1 ACT       0.1885
     39 H5         -8.0393   13.7269   -4.3973 H           1 ACT       0.0840
     40 H6         -9.6491   12.9797   -1.9023 H           1 ACT       0.0584
     41 H7         -7.9336   12.6803   -2.1353 H           1 ACT       0.0584
     42 H8        -11.1196   11.2139   -2.5841 H           1 ACT       0.0703
     43 H9         -7.2581   11.3193   -4.2860 H           1 ACT       0.0703
     44 H10       -11.5620    9.1603   -3.7408 H           1 ACT       0.0736
     45 H11        -7.7229    9.2754   -5.4574 H           1 ACT       0.0736
     46 H12       -13.5976   17.0496   -4.1411 H           1 ACT       0.0276
     47 H13       -11.7327   17.3041   -4.0926 H           1 ACT       0.0276
     48 H14       -11.5161   16.0148   -6.1361 H           1 ACT       0.0276
     49 H15       -13.3804   15.7146   -6.1613 H           1 ACT       0.0276
     50 H16       -10.9960   14.9345   -2.6967 H           1 ACT       0.1839
     51 H17       -14.0054   15.5723   -2.3738 H           1 ACT       0.1891
     52 H18       -15.5772   14.6522   -1.2629 H           1 ACT       0.0828
     53 H19       -17.0817   12.8920   -2.7419 H           1 ACT       0.0551
     54 H20       -16.3722   13.8556   -4.0409 H           1 ACT       0.0551
     55 H21       -19.5744   15.2927   -3.0508 H           1 ACT       0.1814
     56 H22       -19.0905   13.8042   -3.6545 H           1 ACT       0.1814
     57 H23       -14.6021   11.6638    0.1016 H           1 ACT       0.1815
     58 H24       -15.2167   13.1939    0.3557 H           1 ACT       0.1815
@<TRIPOS>BOND
     1     1     2   2
     2     1     3   1
     3     4     1  am
     4     5     4   1
     5     6     5   1
     6     5     8   1
     7     6     7   2
     8    25     6  am
     9     8     9   1
    10     9    10  ar
    11     9    11  ar
    12    10    12  ar
    13    11    13  ar
    14    12    14  ar
    15    13    14  ar
    16    14    15   1
    17    15    16   1
    18    16    17  ar
    19    16    18  ar
    20    16    19  ar
    21    21    20   1
    22    22    20   1
    23    22    21   1
    24    22    23   1
    25    22    25   1
    26    23    24   2
    27    23    26  am
    28    26    27   1
    29    27    28   1
    30    27    30   1
    31    28    29   2
    32    28    34  am
    33    30    31   1
    34    31    32   2
    35    31    33  am
    36     3    35   1
    37     3    36   1
    38     3    37   1
    39     4    38   1
    40     5    39   1
    41     8    40   1
    42     8    41   1
    43    10    42   1
    44    11    43   1
    45    12    44   1
    46    13    45   1
    47    20    46   1
    48    20    47   1
    49    21    48   1
    50    21    49   1
    51    25    50   1
    52    26    51   1
    53    27    52   1
    54    30    53   1
    55    30    54   1
    56    33    55   1
    57    33    56   1
    58    34    57   1
    59    34    58   1
@<TRIPOS>SUBSTRUCTURE
     1  ACT      1

