@<TRIPOS>MOLECULE
3ov1_ligand_074
    58    59
SMALL
GAST_HUCK
****
This file was generated by PARSER (from files_GN.cpp)

@<TRIPOS>ATOM
      1 C          -9.0141   12.6800    4.4758 C.2         1 ACT       0.1753
      2 O          -9.9208   11.9686    4.8960 O.2         1 ACT      -0.3972
      3 CH3        -7.7709   12.0414    4.1113 C.3         1 ACT       0.0258
      4 N          -9.1642   13.9927    4.3185 N.am        1 ACT      -0.2628
      5 CA        -10.3530   14.7518    4.6020 C.3         1 ACT       0.1465
      6 C         -11.4777   14.2743    3.7892 C.2         1 ACT       0.2045
      7 O         -11.3584   14.3054    2.5738 O.2         1 ACT      -0.3944
      8 CB        -10.1073   16.2921    4.4681 C.3         1 ACT       0.0400
      9 CG         -9.8298   16.7994    3.0910 C.ar        1 ACT      -0.0004
     10 CD1        -8.5110   16.8509    2.5910 C.ar        1 ACT      -0.0239
     11 CD2       -10.8873   17.2002    2.2386 C.ar        1 ACT      -0.0239
     12 CE1        -8.2614   17.2529    1.2677 C.ar        1 ACT       0.0115
     13 CE2       -10.6406   17.5496    0.8945 C.ar        1 ACT       0.0115
     14 CZ         -9.3249   17.5320    0.3830 C.ar        1 ACT       0.1728
     15 OH         -9.0812   17.8682   -0.9260 O.3         1 ACT      -0.2040
     16 P          -8.6726   16.6824   -1.8533 P.3         1 ACT       0.1348
     17 O1P        -8.3915   17.2048   -3.1587 O.co2       1 ACT      -0.6653
     18 O2P        -7.4688   16.0046   -1.4161 O.co2       1 ACT      -0.6653
     19 O3P        -9.7320   15.7091   -2.0103 O.co2       1 ACT      -0.6653
     20 CB        -14.0612   13.0468    2.2740 C.3         1 ACT      -0.0184
     21 CG        -13.5493   11.8427    3.0733 C.3         1 ACT      -0.0184
     22 CA        -13.7374   13.2075    3.7780 C.3         1 ACT       0.1329
     23 C         -14.9155   13.4585    4.5819 C.2         1 ACT       0.2267
     24 O         -15.6534   12.5418    4.9119 O.2         1 ACT      -0.3419
     25 N         -12.5220   13.7038    4.3643 N.am        1 ACT      -0.2738
     26 N         -15.1702   14.7220    4.8884 N.am        1 ACT      -0.2608
     27 CA        -16.3367   15.2944    5.4994 C.3         1 ACT       0.1474
     28 C         -16.5022   14.8822    6.8962 C.2         1 ACT       0.2017
     29 O         -16.7649   13.7282    7.2062 O.2         1 ACT      -0.3945
     30 CB        -17.5955   15.2043    4.5722 C.3         1 ACT       0.0774
     31 CG        -18.3553   13.9655    4.5875 C.2         1 ACT       0.1781
     32 OD1       -19.1340   13.7266    5.4994 O.2         1 ACT      -0.3970
     33 ND2       -18.2717   13.0968    3.6046 N.am        1 ACT      -0.3007
     34 N         -16.3526   15.7304    7.8912 N.am        1 ACT      -0.2988
     35 H1         -7.0181   12.7731    3.8072 H           1 ACT       0.0467
     36 H2         -7.9475   11.3567    3.2792 H           1 ACT       0.0467
     37 H3         -7.3809   11.4740    4.9602 H           1 ACT       0.0467
     38 H4         -8.3935   14.4830    3.9890 H           1 ACT       0.1885
     39 H5        -10.5728   14.5852    5.6633 H           1 ACT       0.0840
     40 H6         -9.2694   16.5688    5.1210 H           1 ACT       0.0584
     41 H7        -10.9759   16.8201    4.8740 H           1 ACT       0.0584
     42 H8         -7.7211   16.5901    3.1827 H           1 ACT       0.0703
     43 H9        -11.8540   17.1955    2.5780 H           1 ACT       0.0703
     44 H10        -7.2971   17.2992    0.9265 H           1 ACT       0.0736
     45 H11       -11.4256   17.8009    0.2875 H           1 ACT       0.0736
     46 H12       -15.1114   12.9708    1.9885 H           1 ACT       0.0276
     47 H13       -13.3669   13.4069    1.5172 H           1 ACT       0.0276
     48 H14       -12.5276   11.5457    2.8303 H           1 ACT       0.0276
     49 H15       -14.2914   11.0702    3.2504 H           1 ACT       0.0276
     50 H16       -12.4844   13.6428    5.3301 H           1 ACT       0.1839
     51 H17       -14.4953   15.3612    4.6148 H           1 ACT       0.1891
     52 H18       -16.0983   16.3618    5.5145 H           1 ACT       0.0828
     53 H19       -17.2675   15.4077    3.5458 H           1 ACT       0.0551
     54 H20       -18.2801   16.0196    4.8203 H           1 ACT       0.0551
     55 H21       -18.8004   12.2838    3.6244 H           1 ACT       0.1814
     56 H22       -17.6575   13.2492    2.8679 H           1 ACT       0.1814
     57 H23       -16.4630   15.4277    8.8064 H           1 ACT       0.1815
     58 H24       -16.1431   16.6621    7.7169 H           1 ACT       0.1815
@<TRIPOS>BOND
     1     1     2   2
     2     1     3   1
     3     4     1  am
     4     5     4   1
     5     6     5   1
     6     5     8   1
     7     6     7   2
     8    25     6  am
     9     8     9   1
    10     9    10  ar
    11     9    11  ar
    12    10    12  ar
    13    11    13  ar
    14    12    14  ar
    15    13    14  ar
    16    14    15   1
    17    15    16   1
    18    16    17  ar
    19    16    18  ar
    20    16    19  ar
    21    21    20   1
    22    22    20   1
    23    22    21   1
    24    22    23   1
    25    22    25   1
    26    23    24   2
    27    23    26  am
    28    26    27   1
    29    27    28   1
    30    27    30   1
    31    28    29   2
    32    28    34  am
    33    30    31   1
    34    31    32   2
    35    31    33  am
    36     3    35   1
    37     3    36   1
    38     3    37   1
    39     4    38   1
    40     5    39   1
    41     8    40   1
    42     8    41   1
    43    10    42   1
    44    11    43   1
    45    12    44   1
    46    13    45   1
    47    20    46   1
    48    20    47   1
    49    21    48   1
    50    21    49   1
    51    25    50   1
    52    26    51   1
    53    27    52   1
    54    30    53   1
    55    30    54   1
    56    33    55   1
    57    33    56   1
    58    34    57   1
    59    34    58   1
@<TRIPOS>SUBSTRUCTURE
     1  ACT      1

