@<TRIPOS>MOLECULE
3ov1_ligand_071
    58    59
SMALL
GAST_HUCK
****
This file was generated by PARSER (from files_GN.cpp)

@<TRIPOS>ATOM
      1 C          -5.8479   16.1499   -2.9233 C.2         1 ACT       0.1753
      2 O          -5.3766   15.2378   -2.2538 O.2         1 ACT      -0.3972
      3 CH3        -4.9877   17.2607   -3.2382 C.3         1 ACT       0.0258
      4 N          -7.1163   16.1414   -3.3175 N.am        1 ACT      -0.2628
      5 CA         -8.0762   15.1100   -3.0377 C.3         1 ACT       0.1465
      6 C          -7.7558   13.9050   -3.7999 C.2         1 ACT       0.2045
      7 O          -7.4173   12.9145   -3.1642 O.2         1 ACT      -0.3944
      8 CB         -9.5286   15.6417   -3.2778 C.3         1 ACT       0.0400
      9 CG        -10.6422   14.6717   -3.0418 C.ar        1 ACT      -0.0004
     10 CD1       -10.6942   13.9048   -1.8546 C.ar        1 ACT      -0.0239
     11 CD2       -11.7117   14.5333   -3.9659 C.ar        1 ACT      -0.0239
     12 CE1       -11.7495   13.0110   -1.6091 C.ar        1 ACT       0.0115
     13 CE2       -12.8000   13.6722   -3.6985 C.ar        1 ACT       0.0115
     14 CZ        -12.8357   12.9167   -2.5069 C.ar        1 ACT       0.1728
     15 OH        -13.8585   12.0298   -2.2823 O.3         1 ACT      -0.2040
     16 P         -14.9464   12.5288   -1.2834 P.3         1 ACT       0.1348
     17 O1P       -15.8613   13.4753   -1.8880 O.co2       1 ACT      -0.6653
     18 O2P       -15.7362   11.3927   -0.8714 O.co2       1 ACT      -0.6653
     19 O3P       -14.4305   13.0905   -0.0541 O.co2       1 ACT      -0.6653
     20 CB         -8.2796   13.0563   -7.3677 C.3         1 ACT      -0.0184
     21 CG         -6.7622   13.2722   -7.3340 C.3         1 ACT      -0.0184
     22 CA         -7.5048   12.8529   -6.0466 C.3         1 ACT       0.1329
     23 C          -7.4323   11.4591   -5.6295 C.2         1 ACT       0.2267
     24 O          -6.3474   10.8937   -5.6402 O.2         1 ACT      -0.3419
     25 N          -7.7622   13.9286   -5.1260 N.am        1 ACT      -0.2738
     26 N          -8.5340   10.8669   -5.1838 N.am        1 ACT      -0.2608
     27 CA         -8.6822    9.5219   -4.6858 C.3         1 ACT       0.1474
     28 C          -9.7497    8.8097   -5.3860 C.2         1 ACT       0.2017
     29 O          -9.8651    7.5990   -5.2388 O.2         1 ACT      -0.3945
     30 CB         -8.9159    9.5689   -3.1335 C.3         1 ACT       0.0774
     31 CG         -7.6906    9.4618   -2.3603 C.2         1 ACT       0.1781
     32 OD1        -6.7975   10.2831   -2.5044 O.2         1 ACT      -0.3970
     33 ND2        -7.4949    8.5047   -1.4787 N.am        1 ACT      -0.3007
     34 N         -10.6303    9.3802   -6.1798 N.am        1 ACT      -0.2988
     35 H1         -5.4935   17.9949   -3.8637 H           1 ACT       0.0467
     36 H2         -4.1047   16.9050   -3.7689 H           1 ACT       0.0467
     37 H3         -4.6721   17.7509   -2.3177 H           1 ACT       0.0467
     38 H4         -7.4292   16.9195   -3.8059 H           1 ACT       0.1885
     39 H5         -7.9976   14.9102   -1.9608 H           1 ACT       0.0840
     40 H6         -9.5933   16.0542   -4.2898 H           1 ACT       0.0584
     41 H7         -9.6970   16.4749   -2.5912 H           1 ACT       0.0584
     42 H8         -9.9631   13.9795   -1.1545 H           1 ACT       0.0703
     43 H9        -11.7194   15.0769   -4.8373 H           1 ACT       0.0703
     44 H10       -11.7426   12.4434   -0.7607 H           1 ACT       0.0736
     45 H11       -13.5679   13.5970   -4.3743 H           1 ACT       0.0736
     46 H12        -8.5798   12.1761   -7.9392 H           1 ACT       0.0276
     47 H13        -8.8550   13.9770   -7.4959 H           1 ACT       0.0276
     48 H14        -6.4524   14.3187   -7.4208 H           1 ACT       0.0276
     49 H15        -6.1914   12.5095   -7.8686 H           1 ACT       0.0276
     50 H16        -7.9804   14.7898   -5.5209 H           1 ACT       0.1839
     51 H17        -9.3268   11.4267   -5.1507 H           1 ACT       0.1891
     52 H18        -7.7731    8.9492   -4.8976 H           1 ACT       0.0828
     53 H19        -9.5985    8.7723   -2.8235 H           1 ACT       0.0551
     54 H20        -9.4097   10.5047   -2.8595 H           1 ACT       0.0551
     55 H21        -6.6680    8.4706   -0.9731 H           1 ACT       0.1814
     56 H22        -8.1799    7.8377   -1.3187 H           1 ACT       0.1814
     57 H23       -11.3145    8.8462   -6.6144 H           1 ACT       0.1815
     58 H24       -10.6137   10.3373   -6.3267 H           1 ACT       0.1815
@<TRIPOS>BOND
     1     1     2   2
     2     1     3   1
     3     4     1  am
     4     5     4   1
     5     6     5   1
     6     5     8   1
     7     6     7   2
     8    25     6  am
     9     8     9   1
    10     9    10  ar
    11     9    11  ar
    12    10    12  ar
    13    11    13  ar
    14    12    14  ar
    15    13    14  ar
    16    14    15   1
    17    15    16   1
    18    16    17  ar
    19    16    18  ar
    20    16    19  ar
    21    21    20   1
    22    22    20   1
    23    22    21   1
    24    22    23   1
    25    22    25   1
    26    23    24   2
    27    23    26  am
    28    26    27   1
    29    27    28   1
    30    27    30   1
    31    28    29   2
    32    28    34  am
    33    30    31   1
    34    31    32   2
    35    31    33  am
    36     3    35   1
    37     3    36   1
    38     3    37   1
    39     4    38   1
    40     5    39   1
    41     8    40   1
    42     8    41   1
    43    10    42   1
    44    11    43   1
    45    12    44   1
    46    13    45   1
    47    20    46   1
    48    20    47   1
    49    21    48   1
    50    21    49   1
    51    25    50   1
    52    26    51   1
    53    27    52   1
    54    30    53   1
    55    30    54   1
    56    33    55   1
    57    33    56   1
    58    34    57   1
    59    34    58   1
@<TRIPOS>SUBSTRUCTURE
     1  ACT      1

