@<TRIPOS>MOLECULE
3ov1_ligand_086
    58    59
SMALL
GAST_HUCK
****
This file was generated by PARSER (from files_GN.cpp)

@<TRIPOS>ATOM
      1 C         -15.4941   14.9587    6.8479 C.2         1 ACT       0.1753
      2 O         -14.5179   14.9771    6.1084 O.2         1 ACT      -0.3972
      3 CH3       -15.3551   15.5239    8.1693 C.3         1 ACT       0.0258
      4 N         -16.6558   14.4380    6.4642 N.am        1 ACT      -0.2628
      5 CA        -16.9492   13.8542    5.1804 C.3         1 ACT       0.1465
      6 C         -18.3769   13.5431    5.1024 C.2         1 ACT       0.2045
      7 O         -18.8990   12.9109    6.0149 O.2         1 ACT      -0.3944
      8 CB        -16.0674   12.5852    4.8688 C.3         1 ACT       0.0400
      9 CG        -15.1578   12.7599    3.6998 C.ar        1 ACT      -0.0004
     10 CD1       -13.7516   12.7873    3.8588 C.ar        1 ACT      -0.0239
     11 CD2       -15.6979   12.8887    2.3988 C.ar        1 ACT      -0.0239
     12 CE1       -12.9080   12.9543    2.7451 C.ar        1 ACT       0.0115
     13 CE2       -14.8515   13.0613    1.2889 C.ar        1 ACT       0.0115
     14 CZ        -13.4537   13.1183    1.4549 C.ar        1 ACT       0.1728
     15 OH        -12.6325   13.2185    0.3632 O.3         1 ACT      -0.2040
     16 P         -12.2568   14.6831   -0.0203 P.3         1 ACT       0.1348
     17 O1P       -11.4501   14.6216   -1.2056 O.co2       1 ACT      -0.6653
     18 O2P       -13.4116   15.4865   -0.3341 O.co2       1 ACT      -0.6653
     19 O3P       -11.4683   15.3305    0.9995 O.co2       1 ACT      -0.6653
     20 CB        -21.4917   13.6443    4.7855 C.3         1 ACT      -0.0184
     21 CG        -21.3728   14.6907    3.6717 C.3         1 ACT      -0.0184
     22 CA        -20.4055   13.4818    3.6981 C.3         1 ACT       0.1329
     23 C         -20.5912   12.6033    2.5467 C.2         1 ACT       0.2267
     24 O         -21.5854   11.8908    2.4788 O.2         1 ACT      -0.3419
     25 N         -19.0692   13.8816    4.0198 N.am        1 ACT      -0.2738
     26 N         -19.7028   12.6241    1.5587 N.am        1 ACT      -0.2608
     27 CA        -19.7480   11.8801    0.3240 C.3         1 ACT       0.1474
     28 C         -18.4857   12.1274   -0.3692 C.2         1 ACT       0.2017
     29 O         -17.5823   11.3069   -0.3122 O.2         1 ACT      -0.3945
     30 CB        -21.0443   12.1923   -0.5120 C.3         1 ACT       0.0774
     31 CG        -20.9190   12.2067   -1.9629 C.2         1 ACT       0.1781
     32 OD1       -21.2446   13.1946   -2.6086 O.2         1 ACT      -0.3970
     33 ND2       -20.4324   11.1863   -2.6361 N.am        1 ACT      -0.3007
     34 N         -18.2828   13.2129   -1.0858 N.am        1 ACT      -0.2988
     35 H1        -16.2885   15.4632    8.7367 H           1 ACT       0.0467
     36 H2        -15.0656   16.5746    8.0967 H           1 ACT       0.0467
     37 H3        -14.5811   14.9840    8.7204 H           1 ACT       0.0467
     38 H4        -17.3828   14.5027    7.1013 H           1 ACT       0.1885
     39 H5        -16.7324   14.6365    4.4437 H           1 ACT       0.0840
     40 H6        -16.6823   11.7039    4.6612 H           1 ACT       0.0584
     41 H7        -15.4866   12.3290    5.7576 H           1 ACT       0.0584
     42 H8        -13.3341   12.6750    4.7854 H           1 ACT       0.0703
     43 H9        -16.7080   12.8504    2.2549 H           1 ACT       0.0703
     44 H10       -11.8935   12.9552    2.8734 H           1 ACT       0.0736
     45 H11       -15.2508   13.1423    0.3502 H           1 ACT       0.0736
     46 H12       -22.3839   13.0117    4.7245 H           1 ACT       0.0276
     47 H13       -21.1760   14.0095    5.7677 H           1 ACT       0.0276
     48 H14       -20.9866   15.6565    4.0070 H           1 ACT       0.0276
     49 H15       -22.2072   14.6770    2.9621 H           1 ACT       0.0276
     50 H16       -18.5992   14.3928    3.3428 H           1 ACT       0.1839
     51 H17       -18.9356   13.1997    1.6802 H           1 ACT       0.1891
     52 H18       -19.7802   10.8146    0.5870 H           1 ACT       0.0828
     53 H19       -21.4384   13.1612   -0.1957 H           1 ACT       0.0551
     54 H20       -21.8152   11.4524   -0.2598 H           1 ACT       0.0551
     55 H21       -20.3168   11.2497   -3.5976 H           1 ACT       0.1814
     56 H22       -20.1390   10.3890   -2.1659 H           1 ACT       0.1814
     57 H23       -17.4454   13.3313   -1.5591 H           1 ACT       0.1815
     58 H24       -18.9871   13.8760   -1.1882 H           1 ACT       0.1815
@<TRIPOS>BOND
     1     1     2   2
     2     1     3   1
     3     4     1  am
     4     5     4   1
     5     6     5   1
     6     5     8   1
     7     6     7   2
     8    25     6  am
     9     8     9   1
    10     9    10  ar
    11     9    11  ar
    12    10    12  ar
    13    11    13  ar
    14    12    14  ar
    15    13    14  ar
    16    14    15   1
    17    15    16   1
    18    16    17  ar
    19    16    18  ar
    20    16    19  ar
    21    21    20   1
    22    22    20   1
    23    22    21   1
    24    22    23   1
    25    22    25   1
    26    23    24   2
    27    23    26  am
    28    26    27   1
    29    27    28   1
    30    27    30   1
    31    28    29   2
    32    28    34  am
    33    30    31   1
    34    31    32   2
    35    31    33  am
    36     3    35   1
    37     3    36   1
    38     3    37   1
    39     4    38   1
    40     5    39   1
    41     8    40   1
    42     8    41   1
    43    10    42   1
    44    11    43   1
    45    12    44   1
    46    13    45   1
    47    20    46   1
    48    20    47   1
    49    21    48   1
    50    21    49   1
    51    25    50   1
    52    26    51   1
    53    27    52   1
    54    30    53   1
    55    30    54   1
    56    33    55   1
    57    33    56   1
    58    34    57   1
    59    34    58   1
@<TRIPOS>SUBSTRUCTURE
     1  ACT      1

