@<TRIPOS>MOLECULE
3ov1_ligand_001
    58    59
SMALL
GAST_HUCK
****
This file was generated by PARSER (from files_GN.cpp)

@<TRIPOS>ATOM
      1 C         -14.4255   14.4141   -2.5681 C.2         1 ACT       0.1753
      2 O         -14.9339   13.5229   -3.2397 O.2         1 ACT      -0.3972
      3 CH3       -14.4259   15.7564   -3.0985 C.3         1 ACT       0.0258
      4 N         -13.9185   14.1775   -1.3676 N.am        1 ACT      -0.2628
      5 CA        -13.8813   12.9264   -0.6589 C.3         1 ACT       0.1465
      6 C         -14.9148   12.9915    0.3676 C.2         1 ACT       0.2045
      7 O         -14.7198   13.6534    1.3808 O.2         1 ACT      -0.3944
      8 CB        -12.4579   12.6546   -0.0718 C.3         1 ACT       0.0400
      9 CG        -11.5816   11.9155   -1.0213 C.ar        1 ACT      -0.0004
     10 CD1       -11.1985   10.5783   -0.7607 C.ar        1 ACT      -0.0239
     11 CD2       -11.1406   12.5209   -2.2214 C.ar        1 ACT      -0.0239
     12 CE1       -10.4241    9.8543   -1.6881 C.ar        1 ACT       0.0115
     13 CE2       -10.3574   11.8029   -3.1440 C.ar        1 ACT       0.0115
     14 CZ        -10.0281   10.4538   -2.9027 C.ar        1 ACT       0.1728
     15 OH         -9.2531    9.7244   -3.7632 O.3         1 ACT      -0.2040
     16 P          -9.9779    9.3096   -5.0804 P.3         1 ACT       0.1348
     17 O1P       -10.0464   10.4232   -5.9972 O.co2       1 ACT      -0.6653
     18 O2P        -9.1784    8.2993   -5.7252 O.co2       1 ACT      -0.6653
     19 O3P       -11.2986    8.7445   -4.9158 O.co2       1 ACT      -0.6653
     20 CB        -18.4239   13.2372    0.4403 C.3         1 ACT      -0.0184
     21 CG        -18.4317   11.7107    0.3639 C.3         1 ACT      -0.0184
     22 CA        -17.2253   12.4418    1.0028 C.3         1 ACT       0.1329
     23 C         -17.0832   12.1815    2.4231 C.2         1 ACT       0.2267
     24 O         -16.6424   11.0879    2.7648 O.2         1 ACT      -0.3419
     25 N         -16.0743   12.3773    0.1567 N.am        1 ACT      -0.2738
     26 N         -17.3925   13.1308    3.2995 N.am        1 ACT      -0.2608
     27 CA        -17.3500   13.0498    4.7336 C.3         1 ACT       0.1474
     28 C         -18.7083   13.0571    5.2772 C.2         1 ACT       0.2017
     29 O         -18.9089   12.6708    6.4195 O.2         1 ACT      -0.3945
     30 CB        -16.4745   14.2321    5.2742 C.3         1 ACT       0.0774
     31 CG        -16.0524   14.1720    6.6670 C.2         1 ACT       0.1781
     32 OD1       -16.6126   13.4698    7.5015 O.2         1 ACT      -0.3970
     33 ND2       -15.0366   14.8992    7.0877 N.am        1 ACT      -0.3007
     34 N         -19.7688   13.4720    4.6154 N.am        1 ACT      -0.2988
     35 H1        -13.9598   16.4617   -2.4065 H           1 ACT       0.0467
     36 H2        -15.4511   16.0802   -3.2818 H           1 ACT       0.0467
     37 H3        -13.8725   15.7789   -4.0370 H           1 ACT       0.0467
     38 H4        -13.5738   14.9458   -0.8873 H           1 ACT       0.1885
     39 H5        -14.1218   12.1011   -1.3399 H           1 ACT       0.0840
     40 H6        -12.5559   12.0796    0.8528 H           1 ACT       0.0584
     41 H7        -11.9752   13.5943    0.2056 H           1 ACT       0.0584
     42 H8        -11.4892   10.1159    0.1022 H           1 ACT       0.0703
     43 H9        -11.3921   13.4886   -2.4344 H           1 ACT       0.0703
     44 H10       -10.1698    8.8845   -1.4807 H           1 ACT       0.0736
     45 H11       -10.0379   12.2598   -3.9988 H           1 ACT       0.0736
     46 H12       -19.1192   13.6728    1.1616 H           1 ACT       0.0276
     47 H13       -18.2471   13.7572   -0.5060 H           1 ACT       0.0276
     48 H14       -18.3428   11.3285   -0.6570 H           1 ACT       0.0276
     49 H15       -19.1761   11.2578    1.0180 H           1 ACT       0.0276
     50 H16       -16.1790   11.9179   -0.6958 H           1 ACT       0.1839
     51 H17       -17.7172   13.9617    2.9206 H           1 ACT       0.1891
     52 H18       -16.8662   12.1162    5.0380 H           1 ACT       0.0828
     53 H19       -17.0217   15.1674    5.1289 H           1 ACT       0.0551
     54 H20       -15.5632   14.2953    4.6678 H           1 ACT       0.0551
     55 H21       -14.7585   14.8659    8.0219 H           1 ACT       0.1814
     56 H22       -14.5626   15.4762    6.4589 H           1 ACT       0.1814
     57 H23       -20.6378   13.4684    5.0509 H           1 ACT       0.1815
     58 H24       -19.6888   13.7814    3.6985 H           1 ACT       0.1815
@<TRIPOS>BOND
     1     1     2   2
     2     1     3   1
     3     4     1  am
     4     5     4   1
     5     6     5   1
     6     5     8   1
     7     6     7   2
     8    25     6  am
     9     8     9   1
    10     9    10  ar
    11     9    11  ar
    12    10    12  ar
    13    11    13  ar
    14    12    14  ar
    15    13    14  ar
    16    14    15   1
    17    15    16   1
    18    16    17  ar
    19    16    18  ar
    20    16    19  ar
    21    21    20   1
    22    22    20   1
    23    22    21   1
    24    22    23   1
    25    22    25   1
    26    23    24   2
    27    23    26  am
    28    26    27   1
    29    27    28   1
    30    27    30   1
    31    28    29   2
    32    28    34  am
    33    30    31   1
    34    31    32   2
    35    31    33  am
    36     3    35   1
    37     3    36   1
    38     3    37   1
    39     4    38   1
    40     5    39   1
    41     8    40   1
    42     8    41   1
    43    10    42   1
    44    11    43   1
    45    12    44   1
    46    13    45   1
    47    20    46   1
    48    20    47   1
    49    21    48   1
    50    21    49   1
    51    25    50   1
    52    26    51   1
    53    27    52   1
    54    30    53   1
    55    30    54   1
    56    33    55   1
    57    33    56   1
    58    34    57   1
    59    34    58   1
@<TRIPOS>SUBSTRUCTURE
     1  ACT      1

