@<TRIPOS>MOLECULE
3ov1_ligand_006
    58    59
SMALL
GAST_HUCK
****
This file was generated by PARSER (from files_GN.cpp)

@<TRIPOS>ATOM
      1 C         -16.3594   14.5697    7.1486 C.2         1 ACT       0.1753
      2 O         -16.5548   13.4097    7.4922 O.2         1 ACT      -0.3972
      3 CH3       -16.1006   15.5523    8.1762 C.3         1 ACT       0.0258
      4 N         -16.4324   14.9506    5.8869 N.am        1 ACT      -0.2628
      5 CA        -16.6355   14.1351    4.7215 C.3         1 ACT       0.1465
      6 C         -15.6043   14.4815    3.7433 C.2         1 ACT       0.2045
      7 O         -15.5490   15.6246    3.2958 O.2         1 ACT      -0.3944
      8 CB        -18.0808   14.3800    4.1901 C.3         1 ACT       0.0400
      9 CG        -18.2975   13.9410    2.7817 C.ar        1 ACT      -0.0004
     10 CD1       -18.3739   12.5639    2.4469 C.ar        1 ACT      -0.0239
     11 CD2       -18.4210   14.8935    1.7458 C.ar        1 ACT      -0.0239
     12 CE1       -18.5571   12.1564    1.1112 C.ar        1 ACT       0.0115
     13 CE2       -18.6110   14.4889    0.4162 C.ar        1 ACT       0.0115
     14 CZ        -18.6658   13.1180    0.0870 C.ar        1 ACT       0.1728
     15 OH        -18.8891   12.7383   -1.2078 O.3         1 ACT      -0.2040
     16 P         -17.6205   12.1806   -1.9106 P.3         1 ACT       0.1348
     17 O1P       -16.9649   11.1930   -1.0857 O.co2       1 ACT      -0.6653
     18 O2P       -18.0811   11.4790   -3.0893 O.co2       1 ACT      -0.6653
     19 O3P       -16.6602   13.1715   -2.3660 O.co2       1 ACT      -0.6653
     20 CB        -14.0818   13.0330    0.9815 C.3         1 ACT      -0.0184
     21 CG        -14.0641   14.5649    1.0301 C.3         1 ACT      -0.0184
     22 CA        -13.7380   13.7558    2.3026 C.3         1 ACT       0.1329
     23 C         -12.3534   13.7581    2.7626 C.2         1 ACT       0.2267
     24 O         -11.4422   13.5026    1.9846 O.2         1 ACT      -0.3419
     25 N         -14.7735   13.5545    3.2788 N.am        1 ACT      -0.2738
     26 N         -12.0889   14.0969    4.0219 N.am        1 ACT      -0.2608
     27 CA        -10.8181   14.1363    4.7122 C.3         1 ACT       0.1474
     28 C          -9.7611   14.8500    3.9914 C.2         1 ACT       0.2017
     29 O         -10.0330   15.6737    3.1302 O.2         1 ACT      -0.3945
     30 CB        -10.4232   12.7546    5.3361 C.3         1 ACT       0.0774
     31 CG         -9.8086   11.7802    4.4488 C.2         1 ACT       0.1781
     32 OD1       -10.2857   11.5642    3.3434 O.2         1 ACT      -0.3970
     33 ND2        -8.8002   11.0275    4.8271 N.am        1 ACT      -0.3007
     34 N          -8.4963   14.7840    4.3550 N.am        1 ACT      -0.2988
     35 H1        -15.9952   16.5582    7.7652 H           1 ACT       0.0467
     36 H2        -15.1749   15.2948    8.6976 H           1 ACT       0.0467
     37 H3        -16.9238   15.5651    8.8968 H           1 ACT       0.0467
     38 H4        -16.3433   15.9023    5.7246 H           1 ACT       0.1885
     39 H5        -16.5554   13.0665    4.9658 H           1 ACT       0.0840
     40 H6        -18.3227   15.4448    4.2915 H           1 ACT       0.0584
     41 H7        -18.7873   13.8494    4.8285 H           1 ACT       0.0584
     42 H8        -18.2865   11.8472    3.1759 H           1 ACT       0.0703
     43 H9        -18.3499   15.8899    1.9478 H           1 ACT       0.0703
     44 H10       -18.6086   11.1642    0.8887 H           1 ACT       0.0736
     45 H11       -18.7038   15.1924   -0.3253 H           1 ACT       0.0736
     46 H12       -13.2752   12.5850    0.3975 H           1 ACT       0.0276
     47 H13       -15.0866   12.6108    0.8799 H           1 ACT       0.0276
     48 H14       -15.0426   15.0395    0.9749 H           1 ACT       0.0276
     49 H15       -13.2201   15.0249    0.5084 H           1 ACT       0.0276
     50 H16       -14.8641   12.6487    3.6328 H           1 ACT       0.1839
     51 H17       -12.8603   14.3369    4.5649 H           1 ACT       0.1891
     52 H18       -11.0310   14.7801    5.5713 H           1 ACT       0.0828
     53 H19       -11.3168   12.3022    5.7792 H           1 ACT       0.0551
     54 H20        -9.7446   12.9472    6.1724 H           1 ACT       0.0551
     55 H21        -8.4396   10.3579    4.2249 H           1 ACT       0.1814
     56 H22        -8.4263   11.1162    5.7195 H           1 ACT       0.1814
     57 H23        -7.8337   15.3360    3.9040 H           1 ACT       0.1815
     58 H24        -8.2169   14.2067    5.0854 H           1 ACT       0.1815
@<TRIPOS>BOND
     1     1     2   2
     2     1     3   1
     3     4     1  am
     4     5     4   1
     5     6     5   1
     6     5     8   1
     7     6     7   2
     8    25     6  am
     9     8     9   1
    10     9    10  ar
    11     9    11  ar
    12    10    12  ar
    13    11    13  ar
    14    12    14  ar
    15    13    14  ar
    16    14    15   1
    17    15    16   1
    18    16    17  ar
    19    16    18  ar
    20    16    19  ar
    21    21    20   1
    22    22    20   1
    23    22    21   1
    24    22    23   1
    25    22    25   1
    26    23    24   2
    27    23    26  am
    28    26    27   1
    29    27    28   1
    30    27    30   1
    31    28    29   2
    32    28    34  am
    33    30    31   1
    34    31    32   2
    35    31    33  am
    36     3    35   1
    37     3    36   1
    38     3    37   1
    39     4    38   1
    40     5    39   1
    41     8    40   1
    42     8    41   1
    43    10    42   1
    44    11    43   1
    45    12    44   1
    46    13    45   1
    47    20    46   1
    48    20    47   1
    49    21    48   1
    50    21    49   1
    51    25    50   1
    52    26    51   1
    53    27    52   1
    54    30    53   1
    55    30    54   1
    56    33    55   1
    57    33    56   1
    58    34    57   1
    59    34    58   1
@<TRIPOS>SUBSTRUCTURE
     1  ACT      1

