@<TRIPOS>MOLECULE
3ov1_ligand_013
    58    59
SMALL
GAST_HUCK
****
This file was generated by PARSER (from files_GN.cpp)

@<TRIPOS>ATOM
      1 C         -11.2985   10.4331   -1.0669 C.2         1 ACT       0.1753
      2 O         -11.2593   10.8136    0.0917 O.2         1 ACT      -0.3972
      3 CH3       -11.0381    9.0345   -1.3442 C.3         1 ACT       0.0258
      4 N         -11.5670   11.2556   -2.0726 N.am        1 ACT      -0.2628
      5 CA        -11.7788   12.6869   -2.0296 C.3         1 ACT       0.1465
      6 C         -13.1867   13.0305   -2.2059 C.2         1 ACT       0.2045
      7 O         -13.9366   12.2903   -2.8264 O.2         1 ACT      -0.3944
      8 CB        -10.8473   13.3842   -3.0766 C.3         1 ACT       0.0400
      9 CG        -10.6254   12.5975   -4.3282 C.ar        1 ACT      -0.0004
     10 CD1       -11.6430   12.4953   -5.3045 C.ar        1 ACT      -0.0239
     11 CD2        -9.4335   11.8566   -4.5138 C.ar        1 ACT      -0.0239
     12 CE1       -11.5085   11.6098   -6.3920 C.ar        1 ACT       0.0115
     13 CE2        -9.2965   10.9763   -5.6023 C.ar        1 ACT       0.0115
     14 CZ        -10.3513   10.8121   -6.5245 C.ar        1 ACT       0.1728
     15 OH        -10.2883    9.9113   -7.5570 O.3         1 ACT      -0.2040
     16 P         -10.7576    8.4721   -7.1758 P.3         1 ACT       0.1348
     17 O1P       -11.5110    7.9544   -8.2931 O.co2       1 ACT      -0.6653
     18 O2P        -9.6223    7.5995   -6.9892 O.co2       1 ACT      -0.6653
     19 O3P       -11.6123    8.4112   -6.0145 O.co2       1 ACT      -0.6653
     20 CB        -15.2091   16.0696   -1.9563 C.3         1 ACT      -0.0184
     21 CG        -15.5423   15.0632   -3.0571 C.3         1 ACT      -0.0184
     22 CA        -15.0245   14.5635   -1.6886 C.3         1 ACT       0.1329
     23 C         -15.9190   14.0076   -0.6800 C.2         1 ACT       0.2267
     24 O         -15.4082   13.4712    0.2992 O.2         1 ACT      -0.3419
     25 N         -13.6573   14.1503   -1.6703 N.am        1 ACT      -0.2738
     26 N         -17.2433   14.0500   -0.7891 N.am        1 ACT      -0.2608
     27 CA        -18.1909   13.4878    0.1240 C.3         1 ACT       0.1474
     28 C         -18.1604   12.0382   -0.0005 C.2         1 ACT       0.2017
     29 O         -17.4309   11.3654    0.7213 O.2         1 ACT      -0.3945
     30 CB        -19.5939   14.1053   -0.1545 C.3         1 ACT       0.0774
     31 CG        -20.7483   13.5408    0.5394 C.2         1 ACT       0.1781
     32 OD1       -21.8783   13.7200    0.0720 O.2         1 ACT      -0.3970
     33 ND2       -20.6652   12.8299    1.6373 N.am        1 ACT      -0.3007
     34 N         -18.8609   11.3959   -0.9164 N.am        1 ACT      -0.2988
     35 H1        -11.0743    8.8143   -2.4168 H           1 ACT       0.0467
     36 H2        -11.7867    8.4154   -0.8426 H           1 ACT       0.0467
     37 H3        -10.0440    8.7653   -0.9722 H           1 ACT       0.0467
     38 H4        -11.5900   10.8448   -2.9478 H           1 ACT       0.1885
     39 H5        -11.4836   13.0582   -1.0447 H           1 ACT       0.0840
     40 H6         -9.8856   13.5626   -2.5853 H           1 ACT       0.0584
     41 H7        -11.2332   14.3711   -3.3378 H           1 ACT       0.0584
     42 H8        -12.5084   13.0293   -5.2111 H           1 ACT       0.0703
     43 H9         -8.6752   11.9097   -3.8259 H           1 ACT       0.0703
     44 H10       -12.2703   11.5162   -7.0627 H           1 ACT       0.0736
     45 H11        -8.4438   10.4202   -5.6949 H           1 ACT       0.0736
     46 H12       -16.0786   16.5736   -1.5327 H           1 ACT       0.0276
     47 H13       -14.3083   16.6615   -2.1527 H           1 ACT       0.0276
     48 H14       -14.8368   15.0522   -3.8913 H           1 ACT       0.0276
     49 H15       -16.6049   14.9557   -3.2842 H           1 ACT       0.0276
     50 H16       -13.0367   14.7025   -1.1700 H           1 ACT       0.1839
     51 H17       -17.6145   14.5193   -1.5524 H           1 ACT       0.1891
     52 H18       -17.9235   13.7795    1.1471 H           1 ACT       0.0828
     53 H19       -19.7925   14.0635   -1.2370 H           1 ACT       0.0551
     54 H20       -19.5608   15.1673    0.1249 H           1 ACT       0.0551
     55 H21       -21.4730   12.4539    2.0362 H           1 ACT       0.1814
     56 H22       -19.8047   12.6629    2.0543 H           1 ACT       0.1814
     57 H23       -18.8526   10.4189   -0.9551 H           1 ACT       0.1815
     58 H24       -19.4368   11.8909   -1.5282 H           1 ACT       0.1815
@<TRIPOS>BOND
     1     1     2   2
     2     1     3   1
     3     4     1  am
     4     5     4   1
     5     6     5   1
     6     5     8   1
     7     6     7   2
     8    25     6  am
     9     8     9   1
    10     9    10  ar
    11     9    11  ar
    12    10    12  ar
    13    11    13  ar
    14    12    14  ar
    15    13    14  ar
    16    14    15   1
    17    15    16   1
    18    16    17  ar
    19    16    18  ar
    20    16    19  ar
    21    21    20   1
    22    22    20   1
    23    22    21   1
    24    22    23   1
    25    22    25   1
    26    23    24   2
    27    23    26  am
    28    26    27   1
    29    27    28   1
    30    27    30   1
    31    28    29   2
    32    28    34  am
    33    30    31   1
    34    31    32   2
    35    31    33  am
    36     3    35   1
    37     3    36   1
    38     3    37   1
    39     4    38   1
    40     5    39   1
    41     8    40   1
    42     8    41   1
    43    10    42   1
    44    11    43   1
    45    12    44   1
    46    13    45   1
    47    20    46   1
    48    20    47   1
    49    21    48   1
    50    21    49   1
    51    25    50   1
    52    26    51   1
    53    27    52   1
    54    30    53   1
    55    30    54   1
    56    33    55   1
    57    33    56   1
    58    34    57   1
    59    34    58   1
@<TRIPOS>SUBSTRUCTURE
     1  ACT      1

