@<TRIPOS>MOLECULE
3ov1_ligand_044
    58    59
SMALL
GAST_HUCK
****
This file was generated by PARSER (from files_GN.cpp)

@<TRIPOS>ATOM
      1 C         -15.8929   16.2240    7.4067 C.2         1 ACT       0.1753
      2 O         -15.1905   16.8460    6.6159 O.2         1 ACT      -0.3972
      3 CH3       -16.0834   16.7645    8.7330 C.3         1 ACT       0.0258
      4 N         -16.4661   15.0699    7.0848 N.am        1 ACT      -0.2628
      5 CA        -16.4323   14.3894    5.8153 C.3         1 ACT       0.1465
      6 C         -17.7823   13.9304    5.5059 C.2         1 ACT       0.2045
      7 O         -18.3704   13.1930    6.2919 O.2         1 ACT      -0.3944
      8 CB        -15.4033   13.2057    5.8408 C.3         1 ACT       0.0400
      9 CG        -14.1814   13.4468    5.0221 C.ar        1 ACT      -0.0004
     10 CD1       -13.8337   12.6037    3.9416 C.ar        1 ACT      -0.0239
     11 CD2       -13.3507   14.5541    5.3026 C.ar        1 ACT      -0.0239
     12 CE1       -12.6890   12.8609    3.1625 C.ar        1 ACT       0.0115
     13 CE2       -12.1930   14.8025    4.5455 C.ar        1 ACT       0.0115
     14 CZ        -11.8397   13.9449    3.4811 C.ar        1 ACT       0.1728
     15 OH        -10.7305   14.2419    2.7328 O.3         1 ACT      -0.2040
     16 P          -9.4288   13.5468    3.2223 P.3         1 ACT       0.1348
     17 O1P        -9.1862   12.3244    2.4968 O.co2       1 ACT      -0.6653
     18 O2P        -8.3375   14.4468    2.9417 O.co2       1 ACT      -0.6653
     19 O3P        -9.3966   13.2849    4.6413 O.co2       1 ACT      -0.6653
     20 CB        -20.8297   13.6825    4.7169 C.3         1 ACT      -0.0184
     21 CG        -20.6431   14.9430    3.8770 C.3         1 ACT      -0.0184
     22 CA        -19.5783   13.8194    3.8135 C.3         1 ACT       0.1329
     23 C         -19.5220   13.2200    2.4833 C.2         1 ACT       0.2267
     24 O         -20.3846   12.4160    2.1539 O.2         1 ACT      -0.3419
     25 N         -18.3533   14.3126    4.3698 N.am        1 ACT      -0.2738
     26 N         -18.5963   13.6135    1.6107 N.am        1 ACT      -0.2608
     27 CA        -18.5590   13.3246    0.2010 C.3         1 ACT       0.1474
     28 C         -18.7459   11.9062   -0.0947 C.2         1 ACT       0.2017
     29 O         -17.8430   11.1070    0.1006 O.2         1 ACT      -0.3945
     30 CB        -17.2702   13.9151   -0.4557 C.3         1 ACT       0.0774
     31 CG        -16.1414   13.0088   -0.6190 C.2         1 ACT       0.1781
     32 OD1       -15.8442   12.5787   -1.7315 O.2         1 ACT      -0.3970
     33 ND2       -15.4575   12.5592    0.4112 N.am        1 ACT      -0.3007
     34 N         -19.8860   11.4233   -0.5304 N.am        1 ACT      -0.2988
     35 H1        -16.7558   16.1461    9.3354 H           1 ACT       0.0467
     36 H2        -16.5111   17.7689    8.6535 H           1 ACT       0.0467
     37 H3        -15.1177   16.8299    9.2399 H           1 ACT       0.0467
     38 H4        -16.9937   14.6485    7.7829 H           1 ACT       0.1885
     39 H5        -16.1232   15.0909    5.0252 H           1 ACT       0.0840
     40 H6        -15.8854   12.2802    5.4978 H           1 ACT       0.0584
     41 H7        -15.0794   13.0099    6.8728 H           1 ACT       0.0584
     42 H8        -14.4154   11.7921    3.7063 H           1 ACT       0.0703
     43 H9        -13.5792   15.1919    6.0689 H           1 ACT       0.0703
     44 H10       -12.4611   12.2490    2.3707 H           1 ACT       0.0736
     45 H11       -11.5987   15.6028    4.7819 H           1 ACT       0.0736
     46 H12       -21.6181   13.0065    4.3776 H           1 ACT       0.0276
     47 H13       -20.7032   13.8443    5.7925 H           1 ACT       0.0276
     48 H14       -20.4410   15.8283    4.4902 H           1 ACT       0.0276
     49 H15       -21.3769   15.0398    3.0715 H           1 ACT       0.0276
     50 H16       -17.8612   14.9445    3.8152 H           1 ACT       0.1839
     51 H17       -17.9357   14.2467    1.9324 H           1 ACT       0.1891
     52 H18       -19.3967   13.8864   -0.2306 H           1 ACT       0.0828
     53 H19       -16.9169   14.7709    0.1379 H           1 ACT       0.0551
     54 H20       -17.5491   14.3174   -1.4442 H           1 ACT       0.0551
     55 H21       -14.7887   11.8571    0.2841 H           1 ACT       0.1814
     56 H22       -15.6606   12.8648    1.3107 H           1 ACT       0.1814
     57 H23       -19.9687   10.4693   -0.6863 H           1 ACT       0.1815
     58 H24       -20.6469   12.0030   -0.6830 H           1 ACT       0.1815
@<TRIPOS>BOND
     1     1     2   2
     2     1     3   1
     3     4     1  am
     4     5     4   1
     5     6     5   1
     6     5     8   1
     7     6     7   2
     8    25     6  am
     9     8     9   1
    10     9    10  ar
    11     9    11  ar
    12    10    12  ar
    13    11    13  ar
    14    12    14  ar
    15    13    14  ar
    16    14    15   1
    17    15    16   1
    18    16    17  ar
    19    16    18  ar
    20    16    19  ar
    21    21    20   1
    22    22    20   1
    23    22    21   1
    24    22    23   1
    25    22    25   1
    26    23    24   2
    27    23    26  am
    28    26    27   1
    29    27    28   1
    30    27    30   1
    31    28    29   2
    32    28    34  am
    33    30    31   1
    34    31    32   2
    35    31    33  am
    36     3    35   1
    37     3    36   1
    38     3    37   1
    39     4    38   1
    40     5    39   1
    41     8    40   1
    42     8    41   1
    43    10    42   1
    44    11    43   1
    45    12    44   1
    46    13    45   1
    47    20    46   1
    48    20    47   1
    49    21    48   1
    50    21    49   1
    51    25    50   1
    52    26    51   1
    53    27    52   1
    54    30    53   1
    55    30    54   1
    56    33    55   1
    57    33    56   1
    58    34    57   1
    59    34    58   1
@<TRIPOS>SUBSTRUCTURE
     1  ACT      1

