@<TRIPOS>MOLECULE
3ov1_ligand_035
    58    59
SMALL
GAST_HUCK
****
This file was generated by PARSER (from files_GN.cpp)

@<TRIPOS>ATOM
      1 C         -15.8703   13.9635    6.7891 C.2         1 ACT       0.1753
      2 O         -15.6633   12.8392    7.2272 O.2         1 ACT      -0.3972
      3 CH3       -16.1433   15.0205    7.7354 C.3         1 ACT       0.0258
      4 N         -15.8197   14.2479    5.4955 N.am        1 ACT      -0.2628
      5 CA        -15.4918   13.3752    4.3939 C.3         1 ACT       0.1465
      6 C         -14.1977   13.7628    3.8251 C.2         1 ACT       0.2045
      7 O         -13.7425   14.8881    4.0171 O.2         1 ACT      -0.3944
      8 CB        -16.7043   13.3475    3.3882 C.3         1 ACT       0.0400
      9 CG        -16.3883   13.4850    1.9373 C.ar        1 ACT      -0.0004
     10 CD1       -16.2727   12.3515    1.0948 C.ar        1 ACT      -0.0239
     11 CD2       -16.2151   14.7677    1.3701 C.ar        1 ACT      -0.0239
     12 CE1       -15.9637   12.5022   -0.2724 C.ar        1 ACT       0.0115
     13 CE2       -15.9116   14.9162    0.0062 C.ar        1 ACT       0.0115
     14 CZ        -15.7477   13.7851   -0.8180 C.ar        1 ACT       0.1728
     15 OH        -15.4776   13.9690   -2.1496 O.3         1 ACT      -0.2040
     16 P         -13.9752   13.7922   -2.5299 P.3         1 ACT       0.1348
     17 O1P       -13.6594   12.4146   -2.8150 O.co2       1 ACT      -0.6653
     18 O2P       -13.7400   14.5256   -3.7536 O.co2       1 ACT      -0.6653
     19 O3P       -13.0487   14.3194   -1.5579 O.co2       1 ACT      -0.6653
     20 CB        -12.2233   12.7907    0.9317 C.3         1 ACT      -0.0184
     21 CG        -12.2186   14.2529    1.3687 C.3         1 ACT      -0.0184
     22 CA        -12.2631   13.1364    2.4390 C.3         1 ACT       0.1329
     23 C         -11.0599   12.9653    3.2335 C.2         1 ACT       0.2267
     24 O         -10.2842   12.0660    2.9445 O.2         1 ACT      -0.3419
     25 N         -13.5313   12.8999    3.0634 N.am        1 ACT      -0.2738
     26 N         -10.8396   13.8029    4.2417 N.am        1 ACT      -0.2608
     27 CA         -9.7138   13.8673    5.1403 C.3         1 ACT       0.1474
     28 C          -8.4394   14.1796    4.4966 C.2         1 ACT       0.2017
     29 O          -8.3119   14.2194    3.2818 O.2         1 ACT      -0.3945
     30 CB         -9.6567   12.6678    6.1413 C.3         1 ACT       0.0774
     31 CG         -9.3274   11.3654    5.5863 C.2         1 ACT       0.1781
     32 OD1       -10.1328   10.4456    5.6257 O.2         1 ACT      -0.3970
     33 ND2        -8.1465   11.1160    5.0602 N.am        1 ACT      -0.3007
     34 N          -7.3784   14.4870    5.2122 N.am        1 ACT      -0.2988
     35 H1        -16.3047   15.9793    7.2369 H           1 ACT       0.0467
     36 H2        -15.2978   15.1295    8.4185 H           1 ACT       0.0467
     37 H3        -17.0377   14.7776    8.3130 H           1 ACT       0.0467
     38 H4        -15.9917   15.1723    5.2577 H           1 ACT       0.1885
     39 H5        -15.3638   12.3551    4.7717 H           1 ACT       0.0840
     40 H6        -17.4204   14.1369    3.6374 H           1 ACT       0.0584
     41 H7        -17.2549   12.4135    3.5468 H           1 ACT       0.0584
     42 H8        -16.4050   11.4120    1.4780 H           1 ACT       0.0703
     43 H9        -16.3095   15.6047    1.9515 H           1 ACT       0.0703
     44 H10       -15.8936   11.6744   -0.8685 H           1 ACT       0.0736
     45 H11       -15.8014   15.8528   -0.3849 H           1 ACT       0.0736
     46 H12       -11.2792   12.4358    0.5147 H           1 ACT       0.0276
     47 H13       -13.1593   12.4364    0.4910 H           1 ACT       0.0276
     48 H14       -13.1476   14.7905    1.1730 H           1 ACT       0.0276
     49 H15       -11.2666   14.7678    1.2168 H           1 ACT       0.0276
     50 H16       -13.9332   12.0276    2.9029 H           1 ACT       0.1839
     51 H17       -11.5254   14.4763    4.3842 H           1 ACT       0.1891
     52 H18        -9.9363   14.7441    5.7588 H           1 ACT       0.0828
     53 H19       -10.6304   12.6061    6.6355 H           1 ACT       0.0551
     54 H20        -8.9304   12.8941    6.9273 H           1 ACT       0.0551
     55 H21        -7.9504   10.2365    4.7049 H           1 ACT       0.1814
     56 H22        -7.4655   11.8053    5.0342 H           1 ACT       0.1814
     57 H23        -6.5405   14.7038    4.7714 H           1 ACT       0.1815
     58 H24        -7.4321   14.5078    6.1821 H           1 ACT       0.1815
@<TRIPOS>BOND
     1     1     2   2
     2     1     3   1
     3     4     1  am
     4     5     4   1
     5     6     5   1
     6     5     8   1
     7     6     7   2
     8    25     6  am
     9     8     9   1
    10     9    10  ar
    11     9    11  ar
    12    10    12  ar
    13    11    13  ar
    14    12    14  ar
    15    13    14  ar
    16    14    15   1
    17    15    16   1
    18    16    17  ar
    19    16    18  ar
    20    16    19  ar
    21    21    20   1
    22    22    20   1
    23    22    21   1
    24    22    23   1
    25    22    25   1
    26    23    24   2
    27    23    26  am
    28    26    27   1
    29    27    28   1
    30    27    30   1
    31    28    29   2
    32    28    34  am
    33    30    31   1
    34    31    32   2
    35    31    33  am
    36     3    35   1
    37     3    36   1
    38     3    37   1
    39     4    38   1
    40     5    39   1
    41     8    40   1
    42     8    41   1
    43    10    42   1
    44    11    43   1
    45    12    44   1
    46    13    45   1
    47    20    46   1
    48    20    47   1
    49    21    48   1
    50    21    49   1
    51    25    50   1
    52    26    51   1
    53    27    52   1
    54    30    53   1
    55    30    54   1
    56    33    55   1
    57    33    56   1
    58    34    57   1
    59    34    58   1
@<TRIPOS>SUBSTRUCTURE
     1  ACT      1

