@<TRIPOS>MOLECULE
3ov1_ligand_030
    58    59
SMALL
GAST_HUCK
****
This file was generated by PARSER (from files_GN.cpp)

@<TRIPOS>ATOM
      1 C         -15.8121   13.9846    6.9078 C.2         1 ACT       0.1753
      2 O         -15.6714   12.8619    7.3732 O.2         1 ACT      -0.3972
      3 CH3       -16.0757   15.0728    7.8262 C.3         1 ACT       0.0258
      4 N         -15.6920   14.2373    5.6137 N.am        1 ACT      -0.2628
      5 CA        -15.3696   13.3312    4.5346 C.3         1 ACT       0.1465
      6 C         -14.0523   13.6382    3.9862 C.2         1 ACT       0.2045
      7 O         -13.4401   14.6404    4.3427 O.2         1 ACT      -0.3944
      8 CB        -16.4819   13.3381    3.4297 C.3         1 ACT       0.0400
      9 CG        -17.1695   14.6516    3.2716 C.ar        1 ACT      -0.0004
     10 CD1       -16.6347   15.6759    2.4553 C.ar        1 ACT      -0.0239
     11 CD2       -18.3357   14.9216    4.0220 C.ar        1 ACT      -0.0239
     12 CE1       -17.2347   16.9503    2.4218 C.ar        1 ACT       0.0115
     13 CE2       -18.9345   16.1890    3.9868 C.ar        1 ACT       0.0115
     14 CZ        -18.3697   17.2232    3.2146 C.ar        1 ACT       0.1728
     15 OH        -18.9822   18.4481    3.1740 O.3         1 ACT      -0.2040
     16 P         -18.7717   19.3290    4.4454 P.3         1 ACT       0.1348
     17 O1P       -17.8615   20.4123    4.1718 O.co2       1 ACT      -0.6653
     18 O2P       -20.0461   19.9313    4.7537 O.co2       1 ACT      -0.6653
     19 O3P       -18.3545   18.6199    5.6281 O.co2       1 ACT      -0.6653
     20 CB        -12.0386   12.6940    1.0842 C.3         1 ACT      -0.0184
     21 CG        -11.8568   14.0890    1.6861 C.3         1 ACT      -0.0184
     22 CA        -12.1697   12.8919    2.6098 C.3         1 ACT       0.1329
     23 C         -11.1028   12.4421    3.4876 C.2         1 ACT       0.2267
     24 O         -10.3727   11.5368    3.1104 O.2         1 ACT      -0.3419
     25 N         -13.5040   12.8010    3.1134 N.am        1 ACT      -0.2738
     26 N         -11.0042   12.9801    4.6974 N.am        1 ACT      -0.2608
     27 CA        -10.0921   12.6678    5.7683 C.3         1 ACT       0.1474
     28 C          -8.6972   12.9649    5.4587 C.2         1 ACT       0.2017
     29 O          -8.1872   12.6139    4.4045 O.2         1 ACT      -0.3945
     30 CB        -10.3237   11.2836    6.4590 C.3         1 ACT       0.0774
     31 CG         -9.7875   10.1049    5.8042 C.2         1 ACT       0.1781
     32 OD1       -10.5036    9.1519    5.5376 O.2         1 ACT      -0.3970
     33 ND2        -8.5041    9.9772    5.5642 N.am        1 ACT      -0.3007
     34 N          -7.9406   13.6332    6.3036 N.am        1 ACT      -0.2988
     35 H1        -16.2111   16.0244    7.3042 H           1 ACT       0.0467
     36 H2        -15.2379   15.1818    8.5200 H           1 ACT       0.0467
     37 H3        -16.9849   14.8639    8.3961 H           1 ACT       0.0467
     38 H4        -15.7964   15.1710    5.3617 H           1 ACT       0.1885
     39 H5        -15.3051   12.3122    4.9325 H           1 ACT       0.0840
     40 H6        -17.2193   12.5751    3.6986 H           1 ACT       0.0584
     41 H7        -16.0777   13.0233    2.4622 H           1 ACT       0.0584
     42 H8        -15.8050   15.5026    1.8845 H           1 ACT       0.0703
     43 H9        -18.7370   14.2022    4.6271 H           1 ACT       0.0703
     44 H10       -16.8399   17.6845    1.8307 H           1 ACT       0.0736
     45 H11       -19.7734   16.3637    4.5459 H           1 ACT       0.0736
     46 H12       -11.1169   12.2490    0.7006 H           1 ACT       0.0276
     47 H13       -12.9620   12.5614    0.5194 H           1 ACT       0.0276
     48 H14       -12.6727   14.7827    1.4661 H           1 ACT       0.0276
     49 H15       -10.8318   14.4625    1.6749 H           1 ACT       0.0276
     50 H16       -14.0172   12.0249    2.8295 H           1 ACT       0.1839
     51 H17       -11.6531   13.6784    4.8958 H           1 ACT       0.1891
     52 H18       -10.3844   13.3974    6.5289 H           1 ACT       0.0828
     53 H19       -11.4022   11.1616    6.5997 H           1 ACT       0.0551
     54 H20        -9.8902   11.3175    7.4630 H           1 ACT       0.0551
     55 H21        -8.1647    9.1725    5.1481 H           1 ACT       0.1814
     56 H22        -7.8885   10.6696    5.8462 H           1 ACT       0.1814
     57 H23        -7.0168   13.8261    6.0802 H           1 ACT       0.1815
     58 H24        -8.3005   13.9344    7.1540 H           1 ACT       0.1815
@<TRIPOS>BOND
     1     1     2   2
     2     1     3   1
     3     4     1  am
     4     5     4   1
     5     6     5   1
     6     5     8   1
     7     6     7   2
     8    25     6  am
     9     8     9   1
    10     9    10  ar
    11     9    11  ar
    12    10    12  ar
    13    11    13  ar
    14    12    14  ar
    15    13    14  ar
    16    14    15   1
    17    15    16   1
    18    16    17  ar
    19    16    18  ar
    20    16    19  ar
    21    21    20   1
    22    22    20   1
    23    22    21   1
    24    22    23   1
    25    22    25   1
    26    23    24   2
    27    23    26  am
    28    26    27   1
    29    27    28   1
    30    27    30   1
    31    28    29   2
    32    28    34  am
    33    30    31   1
    34    31    32   2
    35    31    33  am
    36     3    35   1
    37     3    36   1
    38     3    37   1
    39     4    38   1
    40     5    39   1
    41     8    40   1
    42     8    41   1
    43    10    42   1
    44    11    43   1
    45    12    44   1
    46    13    45   1
    47    20    46   1
    48    20    47   1
    49    21    48   1
    50    21    49   1
    51    25    50   1
    52    26    51   1
    53    27    52   1
    54    30    53   1
    55    30    54   1
    56    33    55   1
    57    33    56   1
    58    34    57   1
    59    34    58   1
@<TRIPOS>SUBSTRUCTURE
     1  ACT      1

