@<TRIPOS>MOLECULE
3ov1_ligand_014
    58    59
SMALL
GAST_HUCK
****
This file was generated by PARSER (from files_GN.cpp)

@<TRIPOS>ATOM
      1 C         -15.6735   12.2672    2.0255 C.2         1 ACT       0.1753
      2 O         -14.6551   12.6151    2.6124 O.2         1 ACT      -0.3972
      3 CH3       -16.5024   11.2658    2.6517 C.3         1 ACT       0.0258
      4 N         -16.0195   12.7757    0.8451 N.am        1 ACT      -0.2628
      5 CA        -15.3854   13.8335    0.0971 C.3         1 ACT       0.1465
      6 C         -13.9323   13.6874   -0.0019 C.2         1 ACT       0.2045
      7 O         -13.1914   14.6334    0.2388 O.2         1 ACT      -0.3944
      8 CB        -15.9458   15.2382    0.5152 C.3         1 ACT       0.0400
      9 CG        -16.0600   15.4718    1.9836 C.ar        1 ACT      -0.0004
     10 CD1       -14.9524   15.9160    2.7401 C.ar        1 ACT      -0.0239
     11 CD2       -17.2753   15.2066    2.6616 C.ar        1 ACT      -0.0239
     12 CE1       -15.0457   16.0577    4.1349 C.ar        1 ACT       0.0115
     13 CE2       -17.3693   15.3440    4.0591 C.ar        1 ACT       0.0115
     14 CZ        -16.2442   15.7402    4.8095 C.ar        1 ACT       0.1728
     15 OH        -16.3187   15.9039    6.1694 O.3         1 ACT      -0.2040
     16 P         -15.9660   14.6290    6.9877 P.3         1 ACT       0.1348
     17 O1P       -14.9545   13.7706    6.4138 O.co2       1 ACT      -0.6653
     18 O2P       -15.4119   15.0886    8.2419 O.co2       1 ACT      -0.6653
     19 O3P       -17.1288   13.8366    7.3271 O.co2       1 ACT      -0.6653
     20 CB        -11.8072   10.7528   -0.9945 C.3         1 ACT      -0.0184
     21 CG        -11.4480   11.9641   -1.8588 C.3         1 ACT      -0.0184
     22 CA        -12.0349   12.1815   -0.4509 C.3         1 ACT       0.1329
     23 C         -11.1675   12.5129    0.6667 C.2         1 ACT       0.2267
     24 O         -10.2603   13.3102    0.4694 O.2         1 ACT      -0.3419
     25 N         -13.4264   12.5185   -0.3774 N.am        1 ACT      -0.2738
     26 N         -11.5034   12.0940    1.8811 N.am        1 ACT      -0.2608
     27 CA        -10.9117   12.3991    3.1560 C.3         1 ACT       0.1474
     28 C         -11.7254   13.4077    3.8215 C.2         1 ACT       0.2017
     29 O         -11.8697   14.5151    3.3229 O.2         1 ACT      -0.3945
     30 CB         -9.3952   12.7876    3.1687 C.3         1 ACT       0.0774
     31 CG         -8.7601   12.5823    4.4582 C.2         1 ACT       0.1781
     32 OD1        -8.7938   13.4560    5.3130 O.2         1 ACT      -0.3970
     33 ND2        -8.1764   11.4409    4.7646 N.am        1 ACT      -0.3007
     34 N         -12.2677   13.2002    5.0001 N.am        1 ACT      -0.2988
     35 H1        -17.4224   11.0989    2.0863 H           1 ACT       0.0467
     36 H2        -16.7757   11.5891    3.6569 H           1 ACT       0.0467
     37 H3        -15.9552   10.3244    2.7163 H           1 ACT       0.0467
     38 H4        -16.8269   12.4136    0.4515 H           1 ACT       0.1885
     39 H5        -15.7356   13.6806   -0.9340 H           1 ACT       0.0840
     40 H6        -16.9370   15.3434    0.0655 H           1 ACT       0.0584
     41 H7        -15.3427   16.0307    0.0696 H           1 ACT       0.0584
     42 H8        -14.0708   16.1386    2.2805 H           1 ACT       0.0703
     43 H9        -18.1013   14.8886    2.1440 H           1 ACT       0.0703
     44 H10       -14.2299   16.3726    4.6685 H           1 ACT       0.0736
     45 H11       -18.2512   15.1350    4.5339 H           1 ACT       0.0736
     46 H12       -10.9316   10.1874   -0.6635 H           1 ACT       0.0276
     47 H13       -12.6638   10.1967   -1.3793 H           1 ACT       0.0276
     48 H14       -12.1196   12.1534   -2.6985 H           1 ACT       0.0276
     49 H15       -10.3787   12.1412   -1.9903 H           1 ACT       0.0276
     50 H16       -14.0594   11.8125   -0.5900 H           1 ACT       0.1839
     51 H17       -12.3096   11.5530    1.9227 H           1 ACT       0.1891
     52 H18       -10.9921   11.4576    3.7113 H           1 ACT       0.0828
     53 H19        -9.2694   13.8345    2.8767 H           1 ACT       0.0551
     54 H20        -8.8579   12.1945    2.4206 H           1 ACT       0.0551
     55 H21        -7.7747   11.3180    5.6412 H           1 ACT       0.1814
     56 H22        -8.1498   10.7113    4.1229 H           1 ACT       0.1814
     57 H23       -12.7628   13.9122    5.4325 H           1 ACT       0.1815
     58 H24       -12.1555   12.3475    5.4506 H           1 ACT       0.1815
@<TRIPOS>BOND
     1     1     2   2
     2     1     3   1
     3     4     1  am
     4     5     4   1
     5     6     5   1
     6     5     8   1
     7     6     7   2
     8    25     6  am
     9     8     9   1
    10     9    10  ar
    11     9    11  ar
    12    10    12  ar
    13    11    13  ar
    14    12    14  ar
    15    13    14  ar
    16    14    15   1
    17    15    16   1
    18    16    17  ar
    19    16    18  ar
    20    16    19  ar
    21    21    20   1
    22    22    20   1
    23    22    21   1
    24    22    23   1
    25    22    25   1
    26    23    24   2
    27    23    26  am
    28    26    27   1
    29    27    28   1
    30    27    30   1
    31    28    29   2
    32    28    34  am
    33    30    31   1
    34    31    32   2
    35    31    33  am
    36     3    35   1
    37     3    36   1
    38     3    37   1
    39     4    38   1
    40     5    39   1
    41     8    40   1
    42     8    41   1
    43    10    42   1
    44    11    43   1
    45    12    44   1
    46    13    45   1
    47    20    46   1
    48    20    47   1
    49    21    48   1
    50    21    49   1
    51    25    50   1
    52    26    51   1
    53    27    52   1
    54    30    53   1
    55    30    54   1
    56    33    55   1
    57    33    56   1
    58    34    57   1
    59    34    58   1
@<TRIPOS>SUBSTRUCTURE
     1  ACT      1

