@<TRIPOS>MOLECULE
3ov1_ligand_028
    58    59
SMALL
GAST_HUCK
****
This file was generated by PARSER (from files_GN.cpp)

@<TRIPOS>ATOM
      1 C         -15.4296   12.4321    2.1048 C.2         1 ACT       0.1753
      2 O         -14.4430   12.9174    2.6511 O.2         1 ACT      -0.3972
      3 CH3       -16.1301   11.3831    2.8089 C.3         1 ACT       0.0258
      4 N         -15.8437   12.8462    0.9203 N.am        1 ACT      -0.2628
      5 CA        -15.2992   13.9251    0.1345 C.3         1 ACT       0.1465
      6 C         -13.9512   13.6694   -0.3725 C.2         1 ACT       0.2045
      7 O         -13.2947   14.6026   -0.8431 O.2         1 ACT      -0.3944
      8 CB        -15.4365   15.3040    0.8854 C.3         1 ACT       0.0400
      9 CG        -16.6656   15.4180    1.7168 C.ar        1 ACT      -0.0004
     10 CD1       -16.6004   15.3169    3.1269 C.ar        1 ACT      -0.0239
     11 CD2       -17.9379   15.5263    1.1045 C.ar        1 ACT      -0.0239
     12 CE1       -17.7752   15.2621    3.8954 C.ar        1 ACT       0.0115
     13 CE2       -19.1133   15.4898    1.8768 C.ar        1 ACT       0.0115
     14 CZ        -19.0371   15.3208    3.2743 C.ar        1 ACT       0.1728
     15 OH        -20.1824   15.3046    4.0250 O.3         1 ACT      -0.2040
     16 P         -20.8447   13.8908    4.1716 P.3         1 ACT       0.1348
     17 O1P       -20.4442   13.1740    5.3641 O.co2       1 ACT      -0.6653
     18 O2P       -22.2640   14.1223    4.3127 O.co2       1 ACT      -0.6653
     19 O3P       -20.7001   13.0381    3.0193 O.co2       1 ACT      -0.6653
     20 CB        -11.7493   10.7656   -1.0040 C.3         1 ACT      -0.0184
     21 CG        -11.4189   11.9942   -1.8570 C.3         1 ACT      -0.0184
     22 CA        -12.0182   12.1868   -0.4502 C.3         1 ACT       0.1329
     23 C         -11.1859   12.5444    0.6776 C.2         1 ACT       0.2267
     24 O         -10.2410   13.3129    0.5083 O.2         1 ACT      -0.3419
     25 N         -13.4122   12.4589   -0.3134 N.am        1 ACT      -0.2738
     26 N         -11.5579   12.1088    1.8799 N.am        1 ACT      -0.2608
     27 CA        -11.0034   12.3985    3.1669 C.3         1 ACT       0.1474
     28 C         -11.8321   13.3653    3.8564 C.2         1 ACT       0.2017
     29 O         -12.1075   14.4424    3.3379 O.2         1 ACT      -0.3945
     30 CB         -9.4930   12.8017    3.1460 C.3         1 ACT       0.0774
     31 CG         -8.8373   12.6071    4.4331 C.2         1 ACT       0.1781
     32 OD1        -8.8980   13.4786    5.2944 O.2         1 ACT      -0.3970
     33 ND2        -8.2146   11.4818    4.7251 N.am        1 ACT      -0.3007
     34 N         -12.3269   13.1393    5.0577 N.am        1 ACT      -0.2988
     35 H1        -16.9891   11.0186    2.2353 H           1 ACT       0.0467
     36 H2        -16.4959   11.7591    3.7694 H           1 ACT       0.0467
     37 H3        -15.4577   10.5408    2.9915 H           1 ACT       0.0467
     38 H4        -16.6459   12.4343    0.5712 H           1 ACT       0.1885
     39 H5        -15.9359   13.9956   -0.7545 H           1 ACT       0.0840
     40 H6        -15.4438   16.1176    0.1494 H           1 ACT       0.0584
     41 H7        -14.5448   15.4606    1.5068 H           1 ACT       0.0584
     42 H8        -15.7008   15.2385    3.5990 H           1 ACT       0.0703
     43 H9        -18.0150   15.6101    0.0867 H           1 ACT       0.0703
     44 H10       -17.7049   15.1745    4.9120 H           1 ACT       0.0736
     45 H11       -20.0218   15.5660    1.4201 H           1 ACT       0.0736
     46 H12       -10.8677   10.2267   -0.6416 H           1 ACT       0.0276
     47 H13       -12.5962   10.1917   -1.3733 H           1 ACT       0.0276
     48 H14       -12.0868   12.1660   -2.7019 H           1 ACT       0.0276
     49 H15       -10.3535   12.2150   -1.9733 H           1 ACT       0.0276
     50 H16       -13.9502   11.7404    0.0554 H           1 ACT       0.1839
     51 H17       -12.3447   11.5342    1.8769 H           1 ACT       0.1891
     52 H18       -11.0658   11.4388    3.6981 H           1 ACT       0.0828
     53 H19        -9.3811   13.8508    2.8572 H           1 ACT       0.0551
     54 H20        -8.9700   12.2169    2.3910 H           1 ACT       0.0551
     55 H21        -7.8105   11.3698    5.5926 H           1 ACT       0.1814
     56 H22        -8.1753   10.7695    4.0668 H           1 ACT       0.1814
     57 H23       -12.8872   13.8079    5.4797 H           1 ACT       0.1815
     58 H24       -12.1258   12.3148    5.5245 H           1 ACT       0.1815
@<TRIPOS>BOND
     1     1     2   2
     2     1     3   1
     3     4     1  am
     4     5     4   1
     5     6     5   1
     6     5     8   1
     7     6     7   2
     8    25     6  am
     9     8     9   1
    10     9    10  ar
    11     9    11  ar
    12    10    12  ar
    13    11    13  ar
    14    12    14  ar
    15    13    14  ar
    16    14    15   1
    17    15    16   1
    18    16    17  ar
    19    16    18  ar
    20    16    19  ar
    21    21    20   1
    22    22    20   1
    23    22    21   1
    24    22    23   1
    25    22    25   1
    26    23    24   2
    27    23    26  am
    28    26    27   1
    29    27    28   1
    30    27    30   1
    31    28    29   2
    32    28    34  am
    33    30    31   1
    34    31    32   2
    35    31    33  am
    36     3    35   1
    37     3    36   1
    38     3    37   1
    39     4    38   1
    40     5    39   1
    41     8    40   1
    42     8    41   1
    43    10    42   1
    44    11    43   1
    45    12    44   1
    46    13    45   1
    47    20    46   1
    48    20    47   1
    49    21    48   1
    50    21    49   1
    51    25    50   1
    52    26    51   1
    53    27    52   1
    54    30    53   1
    55    30    54   1
    56    33    55   1
    57    33    56   1
    58    34    57   1
    59    34    58   1
@<TRIPOS>SUBSTRUCTURE
     1  ACT      1

