@<TRIPOS>MOLECULE
3ov1_ligand_081
    58    59
SMALL
GAST_HUCK
****
This file was generated by PARSER (from files_GN.cpp)

@<TRIPOS>ATOM
      1 C          -9.5087   17.2631    1.9892 C.2         1 ACT       0.1753
      2 O         -10.4494   17.6674    2.6609 O.2         1 ACT      -0.3972
      3 CH3        -8.2090   17.8532    2.2068 C.3         1 ACT       0.0258
      4 N          -9.6545   16.3016    1.0869 N.am        1 ACT      -0.2628
      5 CA        -10.8559   15.5670    0.7980 C.3         1 ACT       0.1465
      6 C         -10.9445   14.4304    1.7092 C.2         1 ACT       0.2045
      7 O         -10.0217   13.6263    1.6951 O.2         1 ACT      -0.3944
      8 CB        -10.8320   15.1343   -0.6997 C.3         1 ACT       0.0400
      9 CG        -12.1177   14.5325   -1.1526 C.ar        1 ACT      -0.0004
     10 CD1       -12.3572   13.1445   -1.0168 C.ar        1 ACT      -0.0239
     11 CD2       -13.1340   15.3441   -1.7088 C.ar        1 ACT      -0.0239
     12 CE1       -13.5879   12.5851   -1.4058 C.ar        1 ACT       0.0115
     13 CE2       -14.3620   14.7843   -2.1036 C.ar        1 ACT       0.0115
     14 CZ        -14.6074   13.4063   -1.9287 C.ar        1 ACT       0.1728
     15 OH        -15.7952   12.8747   -2.3484 O.3         1 ACT      -0.2040
     16 P         -16.8831   12.7765   -1.2347 P.3         1 ACT       0.1348
     17 O1P       -16.9539   13.9205   -0.3626 O.co2       1 ACT      -0.6653
     18 O2P       -18.1573   12.6798   -1.8981 O.co2       1 ACT      -0.6653
     19 O3P       -16.7350   11.5733   -0.4559 O.co2       1 ACT      -0.6653
     20 CB        -12.2398   11.8145    2.9039 C.3         1 ACT      -0.0184
     21 CG        -11.2807   12.2281    4.0235 C.3         1 ACT      -0.0184
     22 CA        -12.2998   13.2562    3.4668 C.3         1 ACT       0.1329
     23 C         -13.4563   13.5090    4.3130 C.2         1 ACT       0.2267
     24 O         -13.2562   13.7913    5.4854 O.2         1 ACT      -0.3419
     25 N         -12.0108   14.2730    2.4887 N.am        1 ACT      -0.2738
     26 N         -14.6853   13.3708    3.8315 N.am        1 ACT      -0.2608
     27 CA        -15.9057   13.2585    4.5905 C.3         1 ACT       0.1474
     28 C         -16.9617   12.9177    3.6436 C.2         1 ACT       0.2017
     29 O         -17.4516   11.7973    3.6211 O.2         1 ACT      -0.3945
     30 CB        -16.2737   14.5147    5.4619 C.3         1 ACT       0.0774
     31 CG        -15.9392   14.3829    6.8727 C.2         1 ACT       0.1781
     32 OD1       -16.5050   13.5392    7.5544 O.2         1 ACT      -0.3970
     33 ND2       -15.0704   15.1702    7.4696 N.am        1 ACT      -0.3007
     34 N         -17.4167   13.7886    2.7691 N.am        1 ACT      -0.2988
     35 H1         -7.4517   17.4162    1.5527 H           1 ACT       0.0467
     36 H2         -7.9025   17.6921    3.2418 H           1 ACT       0.0467
     37 H3         -8.2543   18.9258    2.0116 H           1 ACT       0.0467
     38 H4         -8.8556   16.0388    0.6015 H           1 ACT       0.1885
     39 H5        -11.7177   16.2313    0.9276 H           1 ACT       0.0840
     40 H6        -10.0117   14.4309   -0.8773 H           1 ACT       0.0584
     41 H7        -10.6135   16.0133   -1.3150 H           1 ACT       0.0584
     42 H8        -11.6349   12.5310   -0.6322 H           1 ACT       0.0703
     43 H9        -12.9861   16.3494   -1.8304 H           1 ACT       0.0703
     44 H10       -13.7443   11.5795   -1.3030 H           1 ACT       0.0736
     45 H11       -15.0833   15.3850   -2.5108 H           1 ACT       0.0736
     46 H12       -13.0088   11.1059    3.2131 H           1 ACT       0.0276
     47 H13       -11.7449   11.6463    1.9464 H           1 ACT       0.0276
     48 H14       -10.2350   12.3255    3.7390 H           1 ACT       0.0276
     49 H15       -11.4981   11.7860    4.9981 H           1 ACT       0.0276
     50 H16       -12.7019   14.9461    2.3839 H           1 ACT       0.1839
     51 H17       -14.7495   13.2076    2.8764 H           1 ACT       0.1891
     52 H18       -15.7751   12.3940    5.2510 H           1 ACT       0.0828
     53 H19       -17.3499   14.7112    5.4268 H           1 ACT       0.0551
     54 H20       -15.7867   15.3970    5.0382 H           1 ACT       0.0551
     55 H21       -14.8787   15.0581    8.4150 H           1 ACT       0.1814
     56 H22       -14.6083   15.8591    6.9667 H           1 ACT       0.1814
     57 H23       -18.1238   13.5360    2.1540 H           1 ACT       0.1815
     58 H24       -17.0625   14.6916    2.7490 H           1 ACT       0.1815
@<TRIPOS>BOND
     1     1     2   2
     2     1     3   1
     3     4     1  am
     4     5     4   1
     5     6     5   1
     6     5     8   1
     7     6     7   2
     8    25     6  am
     9     8     9   1
    10     9    10  ar
    11     9    11  ar
    12    10    12  ar
    13    11    13  ar
    14    12    14  ar
    15    13    14  ar
    16    14    15   1
    17    15    16   1
    18    16    17  ar
    19    16    18  ar
    20    16    19  ar
    21    21    20   1
    22    22    20   1
    23    22    21   1
    24    22    23   1
    25    22    25   1
    26    23    24   2
    27    23    26  am
    28    26    27   1
    29    27    28   1
    30    27    30   1
    31    28    29   2
    32    28    34  am
    33    30    31   1
    34    31    32   2
    35    31    33  am
    36     3    35   1
    37     3    36   1
    38     3    37   1
    39     4    38   1
    40     5    39   1
    41     8    40   1
    42     8    41   1
    43    10    42   1
    44    11    43   1
    45    12    44   1
    46    13    45   1
    47    20    46   1
    48    20    47   1
    49    21    48   1
    50    21    49   1
    51    25    50   1
    52    26    51   1
    53    27    52   1
    54    30    53   1
    55    30    54   1
    56    33    55   1
    57    33    56   1
    58    34    57   1
    59    34    58   1
@<TRIPOS>SUBSTRUCTURE
     1  ACT      1

