@<TRIPOS>MOLECULE
3ov1_ligand_088
    58    59
SMALL
GAST_HUCK
****
This file was generated by PARSER (from files_GN.cpp)

@<TRIPOS>ATOM
      1 C         -15.1472   16.3166   -0.0310 C.2         1 ACT       0.1753
      2 O         -16.1438   16.3102    0.6806 O.2         1 ACT      -0.3972
      3 CH3       -15.3096   16.6571   -1.4257 C.3         1 ACT       0.0258
      4 N         -13.9506   15.9914    0.4344 N.am        1 ACT      -0.2628
      5 CA        -13.6287   15.5416    1.7639 C.3         1 ACT       0.1465
      6 C         -12.2727   15.9668    2.1009 C.2         1 ACT       0.2045
      7 O         -12.1096   16.7920    2.9920 O.2         1 ACT      -0.3944
      8 CB        -13.8658   14.0074    1.9739 C.3         1 ACT       0.0400
      9 CG        -13.3960   13.1074    0.8733 C.ar        1 ACT      -0.0004
     10 CD1       -14.1015   13.0438   -0.3531 C.ar        1 ACT      -0.0239
     11 CD2       -12.2745   12.2573    1.0338 C.ar        1 ACT      -0.0239
     12 CE1       -13.6495   12.2300   -1.4093 C.ar        1 ACT       0.0115
     13 CE2       -11.8375   11.4213   -0.0169 C.ar        1 ACT       0.0115
     14 CZ        -12.4934   11.4350   -1.2712 C.ar        1 ACT       0.1728
     15 OH        -12.1606   10.6556   -2.3525 O.3         1 ACT      -0.2040
     16 P         -10.7897    9.9238   -2.3617 P.3         1 ACT       0.1348
     17 O1P       -10.5856    9.3403   -3.6686 O.co2       1 ACT      -0.6653
     18 O2P        -9.6561   10.7736   -2.0739 O.co2       1 ACT      -0.6653
     19 O3P       -10.8131    8.8359   -1.4110 O.co2       1 ACT      -0.6653
     20 CB         -9.2028   16.4418    0.3618 C.3         1 ACT      -0.0184
     21 CG         -9.5575   17.3731    1.5253 C.3         1 ACT      -0.0184
     22 CA         -9.8585   15.8596    1.6378 C.3         1 ACT       0.1329
     23 C          -9.0080   15.0083    2.4696 C.2         1 ACT       0.2267
     24 O          -7.8981   15.3938    2.8131 O.2         1 ACT      -0.3419
     25 N         -11.2304   15.4938    1.4300 N.am        1 ACT      -0.2738
     26 N          -9.4637   13.8406    2.9075 N.am        1 ACT      -0.2608
     27 CA         -8.7827   12.8197    3.6639 C.3         1 ACT       0.1474
     28 C          -9.7754   12.0067    4.3551 C.2         1 ACT       0.2017
     29 O         -10.6991   12.5266    4.9654 O.2         1 ACT      -0.3945
     30 CB         -7.6748   13.2833    4.6646 C.3         1 ACT       0.0774
     31 CG         -8.0707   14.2739    5.6436 C.2         1 ACT       0.1781
     32 OD1        -8.4136   15.3908    5.2783 O.2         1 ACT      -0.3970
     33 ND2        -7.9759   14.0386    6.9377 N.am        1 ACT      -0.3007
     34 N          -9.6310   10.7068    4.4831 N.am        1 ACT      -0.2988
     35 H1        -14.3623   16.5979   -1.9698 H           1 ACT       0.0467
     36 H2        -15.6963   17.6747   -1.5199 H           1 ACT       0.0467
     37 H3        -16.0146   15.9662   -1.8944 H           1 ACT       0.0467
     38 H4        -13.2152   16.0462   -0.1964 H           1 ACT       0.1885
     39 H5        -14.3161   16.0585    2.4512 H           1 ACT       0.0840
     40 H6        -14.9380   13.8365    2.1162 H           1 ACT       0.0584
     41 H7        -13.3958   13.7192    2.9211 H           1 ACT       0.0584
     42 H8        -14.9600   13.5748   -0.4845 H           1 ACT       0.0703
     43 H9        -11.7681   12.2323    1.9251 H           1 ACT       0.0703
     44 H10       -14.1747   12.2117   -2.2872 H           1 ACT       0.0736
     45 H11       -11.0432   10.8020    0.1408 H           1 ACT       0.0736
     46 H12        -8.1297   16.3041    0.2143 H           1 ACT       0.0276
     47 H13        -9.8396   16.5587   -0.5181 H           1 ACT       0.0276
     48 H14       -10.3969   18.0428    1.3176 H           1 ACT       0.0276
     49 H15        -8.7062   17.7656    2.0882 H           1 ACT       0.0276
     50 H16       -11.4076   14.8336    0.7386 H           1 ACT       0.1839
     51 H17       -10.3739   13.6240    2.6480 H           1 ACT       0.1891
     52 H18        -8.2792   12.1892    2.9249 H           1 ACT       0.0828
     53 H19        -6.8310   13.6966    4.1097 H           1 ACT       0.0551
     54 H20        -7.2748   12.3955    5.1732 H           1 ACT       0.0551
     55 H21        -8.1795   14.7416    7.5722 H           1 ACT       0.1814
     56 H22        -7.6708   13.1751    7.2635 H           1 ACT       0.1814
     57 H23       -10.2609   10.2038    5.0220 H           1 ACT       0.1815
     58 H24        -8.8695   10.2548    4.0854 H           1 ACT       0.1815
@<TRIPOS>BOND
     1     1     2   2
     2     1     3   1
     3     4     1  am
     4     5     4   1
     5     6     5   1
     6     5     8   1
     7     6     7   2
     8    25     6  am
     9     8     9   1
    10     9    10  ar
    11     9    11  ar
    12    10    12  ar
    13    11    13  ar
    14    12    14  ar
    15    13    14  ar
    16    14    15   1
    17    15    16   1
    18    16    17  ar
    19    16    18  ar
    20    16    19  ar
    21    21    20   1
    22    22    20   1
    23    22    21   1
    24    22    23   1
    25    22    25   1
    26    23    24   2
    27    23    26  am
    28    26    27   1
    29    27    28   1
    30    27    30   1
    31    28    29   2
    32    28    34  am
    33    30    31   1
    34    31    32   2
    35    31    33  am
    36     3    35   1
    37     3    36   1
    38     3    37   1
    39     4    38   1
    40     5    39   1
    41     8    40   1
    42     8    41   1
    43    10    42   1
    44    11    43   1
    45    12    44   1
    46    13    45   1
    47    20    46   1
    48    20    47   1
    49    21    48   1
    50    21    49   1
    51    25    50   1
    52    26    51   1
    53    27    52   1
    54    30    53   1
    55    30    54   1
    56    33    55   1
    57    33    56   1
    58    34    57   1
    59    34    58   1
@<TRIPOS>SUBSTRUCTURE
     1  ACT      1

