@<TRIPOS>MOLECULE
3ov1_ligand_043
    58    59
SMALL
GAST_HUCK
****
This file was generated by PARSER (from files_GN.cpp)

@<TRIPOS>ATOM
      1 C         -10.7833    9.1131   -3.8106 C.2         1 ACT       0.1753
      2 O         -10.6666    8.2528   -4.6755 O.2         1 ACT      -0.3972
      3 CH3       -11.6283    8.8308   -2.6742 C.3         1 ACT       0.0258
      4 N         -10.1390   10.2696   -3.8731 N.am        1 ACT      -0.2628
      5 CA         -9.2243   10.7171   -4.8938 C.3         1 ACT       0.1465
      6 C          -7.8374   10.7253   -4.4302 C.2         1 ACT       0.2045
      7 O          -7.0115   11.3965   -5.0374 O.2         1 ACT      -0.3944
      8 CB         -9.7274   12.0879   -5.4620 C.3         1 ACT       0.0400
      9 CG         -9.3251   13.3559   -4.7754 C.ar        1 ACT      -0.0004
     10 CD1        -9.4100   14.5854   -5.4769 C.ar        1 ACT      -0.0239
     11 CD2        -8.9125   13.3969   -3.4208 C.ar        1 ACT      -0.0239
     12 CE1        -9.0552   15.8005   -4.8635 C.ar        1 ACT       0.0115
     13 CE2        -8.5457   14.6097   -2.8089 C.ar        1 ACT       0.0115
     14 CZ         -8.5776   15.8146   -3.5378 C.ar        1 ACT       0.1728
     15 OH         -8.2607   17.0081   -2.9479 O.3         1 ACT      -0.2040
     16 P          -6.7261   17.2407   -2.7848 P.3         1 ACT       0.1348
     17 O1P        -5.9902   17.1594   -4.0221 O.co2       1 ACT      -0.6653
     18 O2P        -6.5480   18.5780   -2.2810 O.co2       1 ACT      -0.6653
     19 O3P        -6.1557   16.3480   -1.8061 O.co2       1 ACT      -0.6653
     20 CB         -6.0297    8.7578   -1.8211 C.3         1 ACT      -0.0184
     21 CG         -5.4022    8.5198   -3.2009 C.3         1 ACT      -0.0184
     22 CA         -6.1142    9.8562   -2.9076 C.3         1 ACT       0.1329
     23 C          -5.3535   11.0812   -2.6492 C.2         1 ACT       0.2267
     24 O          -5.9264   12.1557   -2.7973 O.2         1 ACT      -0.3419
     25 N          -7.4490    9.9595   -3.4154 N.am        1 ACT      -0.2738
     26 N          -4.0728   11.0558   -2.2995 N.am        1 ACT      -0.2608
     27 CA         -3.1948   12.1726   -2.0653 C.3         1 ACT       0.1474
     28 C          -1.9012   11.6026   -1.6993 C.2         1 ACT       0.2017
     29 O          -1.6946   11.1945   -0.5625 O.2         1 ACT      -0.3945
     30 CB         -3.7208   13.1569   -0.9687 C.3         1 ACT       0.0774
     31 CG         -2.8069   14.1648   -0.4527 C.2         1 ACT       0.1781
     32 OD1        -3.0971   14.7425    0.5849 O.2         1 ACT      -0.3970
     33 ND2        -1.6823   14.5257   -1.0304 N.am        1 ACT      -0.3007
     34 N          -0.9431   11.4345   -2.5826 N.am        1 ACT      -0.2988
     35 H1        -11.6674    9.6714   -1.9771 H           1 ACT       0.0467
     36 H2        -11.2457    7.9585   -2.1416 H           1 ACT       0.0467
     37 H3        -12.6420    8.6216   -3.0171 H           1 ACT       0.0467
     38 H4        -10.2707   10.8682   -3.1219 H           1 ACT       0.1885
     39 H5         -9.2425   10.0119   -5.7299 H           1 ACT       0.0840
     40 H6        -10.8192   12.0763   -5.5024 H           1 ACT       0.0584
     41 H7         -9.3962   12.1331   -6.5056 H           1 ACT       0.0584
     42 H8         -9.7577   14.6109   -6.4397 H           1 ACT       0.0703
     43 H9         -8.8763   12.5423   -2.8656 H           1 ACT       0.0703
     44 H10        -9.1384   16.6743   -5.3851 H           1 ACT       0.0736
     45 H11        -8.2489   14.6135   -1.8276 H           1 ACT       0.0736
     46 H12        -5.3043    8.8760   -1.0123 H           1 ACT       0.0276
     47 H13        -6.9116    8.1367   -1.6376 H           1 ACT       0.0276
     48 H14        -5.9329    7.8017   -3.8296 H           1 ACT       0.0276
     49 H15        -4.3119    8.5263   -3.2327 H           1 ACT       0.0276
     50 H16        -8.1266    9.4328   -2.9624 H           1 ACT       0.1839
     51 H17        -3.6615   10.1771   -2.2294 H           1 ACT       0.1891
     52 H18        -3.1048   12.7249   -3.0091 H           1 ACT       0.0828
     53 H19        -4.0945   12.5692   -0.1263 H           1 ACT       0.0551
     54 H20        -4.5742   13.7059   -1.3805 H           1 ACT       0.0551
     55 H21        -1.1354   15.2212   -0.6317 H           1 ACT       0.1814
     56 H22        -1.3982   14.1159   -1.8630 H           1 ACT       0.1814
     57 H23        -0.1137   11.0039   -2.3186 H           1 ACT       0.1815
     58 H24        -1.0767   11.7043   -3.5054 H           1 ACT       0.1815
@<TRIPOS>BOND
     1     1     2   2
     2     1     3   1
     3     4     1  am
     4     5     4   1
     5     6     5   1
     6     5     8   1
     7     6     7   2
     8    25     6  am
     9     8     9   1
    10     9    10  ar
    11     9    11  ar
    12    10    12  ar
    13    11    13  ar
    14    12    14  ar
    15    13    14  ar
    16    14    15   1
    17    15    16   1
    18    16    17  ar
    19    16    18  ar
    20    16    19  ar
    21    21    20   1
    22    22    20   1
    23    22    21   1
    24    22    23   1
    25    22    25   1
    26    23    24   2
    27    23    26  am
    28    26    27   1
    29    27    28   1
    30    27    30   1
    31    28    29   2
    32    28    34  am
    33    30    31   1
    34    31    32   2
    35    31    33  am
    36     3    35   1
    37     3    36   1
    38     3    37   1
    39     4    38   1
    40     5    39   1
    41     8    40   1
    42     8    41   1
    43    10    42   1
    44    11    43   1
    45    12    44   1
    46    13    45   1
    47    20    46   1
    48    20    47   1
    49    21    48   1
    50    21    49   1
    51    25    50   1
    52    26    51   1
    53    27    52   1
    54    30    53   1
    55    30    54   1
    56    33    55   1
    57    33    56   1
    58    34    57   1
    59    34    58   1
@<TRIPOS>SUBSTRUCTURE
     1  ACT      1

