@<TRIPOS>MOLECULE
3ov1_ligand_023
    58    59
SMALL
GAST_HUCK
****
This file was generated by PARSER (from files_GN.cpp)

@<TRIPOS>ATOM
      1 C         -11.1091   12.1712    0.3410 C.2         1 ACT       0.1753
      2 O         -10.2410   13.0298    0.2105 O.2         1 ACT      -0.3972
      3 CH3       -11.1183   11.0658   -0.5868 C.3         1 ACT       0.0258
      4 N         -12.0176   12.2434    1.3041 N.am        1 ACT      -0.2628
      5 CA        -12.1259   13.2772    2.2995 C.3         1 ACT       0.1465
      6 C         -10.9557   13.3168    3.1577 C.2         1 ACT       0.2045
      7 O         -10.2936   14.3519    3.1864 O.2         1 ACT      -0.3944
      8 CB        -13.4133   13.1085    3.1671 C.3         1 ACT       0.0400
      9 CG        -14.6956   13.1361    2.4051 C.ar        1 ACT      -0.0004
     10 CD1       -15.6605   12.1222    2.5866 C.ar        1 ACT      -0.0239
     11 CD2       -14.9945   14.2145    1.5391 C.ar        1 ACT      -0.0239
     12 CE1       -16.8987   12.1818    1.9184 C.ar        1 ACT       0.0115
     13 CE2       -16.2233   14.2624    0.8514 C.ar        1 ACT       0.0115
     14 CZ        -17.1681   13.2328    1.0165 C.ar        1 ACT       0.1728
     15 OH        -18.3743   13.2906    0.3723 O.3         1 ACT      -0.2040
     16 P         -18.5248   12.2566   -0.7809 P.3         1 ACT       0.1348
     17 O1P       -17.6531   11.1171   -0.6059 O.co2       1 ACT      -0.6653
     18 O2P       -19.8773   11.7508   -0.7113 O.co2       1 ACT      -0.6653
     19 O3P       -18.3473   12.7947   -2.1165 O.co2       1 ACT      -0.6653
     20 CB        -10.0456   11.5957    6.2326 C.3         1 ACT      -0.0184
     21 CG         -9.2767   10.6822    5.2747 C.3         1 ACT      -0.0184
     22 CA         -9.5824   12.1435    4.8632 C.3         1 ACT       0.1329
     23 C          -8.4589   13.0607    4.8880 C.2         1 ACT       0.2267
     24 O          -7.4431   12.7259    4.2890 O.2         1 ACT      -0.3419
     25 N         -10.6350   12.2587    3.8955 N.am        1 ACT      -0.2738
     26 N          -8.6347   14.2693    5.4161 N.am        1 ACT      -0.2608
     27 CA         -7.8120   15.4491    5.3451 C.3         1 ACT       0.1474
     28 C          -6.8484   15.5237    4.2410 C.2         1 ACT       0.2017
     29 O          -7.2159   15.9505    3.1512 O.2         1 ACT      -0.3945
     30 CB         -7.2398   15.8123    6.7606 C.3         1 ACT       0.0774
     31 CG         -6.5385   14.7531    7.4657 C.2         1 ACT       0.1781
     32 OD1        -5.6113   14.1673    6.9147 O.2         1 ACT      -0.3970
     33 ND2        -6.8089   14.4586    8.7167 N.am        1 ACT      -0.3007
     34 N          -5.5920   15.1440    4.3342 N.am        1 ACT      -0.2988
     35 H1        -11.9241   10.3623   -0.3721 H           1 ACT       0.0467
     36 H2        -10.1717   10.5289   -0.5234 H           1 ACT       0.0467
     37 H3        -11.2483   11.4363   -1.6055 H           1 ACT       0.0467
     38 H4        -12.6833   11.5391    1.3303 H           1 ACT       0.1885
     39 H5        -12.2224   14.2296    1.7654 H           1 ACT       0.0840
     40 H6        -13.4544   13.9236    3.8967 H           1 ACT       0.0584
     41 H7        -13.3320   12.1747    3.7377 H           1 ACT       0.0584
     42 H8        -15.4805   11.3359    3.2186 H           1 ACT       0.0703
     43 H9        -14.3311   14.9771    1.4041 H           1 ACT       0.0703
     44 H10       -17.5985   11.4648    2.0925 H           1 ACT       0.0736
     45 H11       -16.4251   15.0484    0.2338 H           1 ACT       0.0736
     46 H12        -9.4901   11.9106    7.1181 H           1 ACT       0.0276
     47 H13       -11.1062   11.3572    6.3407 H           1 ACT       0.0276
     48 H14        -9.8720    9.8985    4.8019 H           1 ACT       0.0276
     49 H15        -8.2525   10.4441    5.5725 H           1 ACT       0.0276
     50 H16       -11.2118   11.4835    3.7962 H           1 ACT       0.1839
     51 H17        -9.4680   14.3865    5.9004 H           1 ACT       0.1891
     52 H18        -8.5253   16.2536    5.1295 H           1 ACT       0.0828
     53 H19        -8.0719   16.1689    7.3806 H           1 ACT       0.0551
     54 H20        -6.5516   16.6621    6.6704 H           1 ACT       0.0551
     55 H21        -6.2621   13.8088    9.1809 H           1 ACT       0.1814
     56 H22        -7.5024   14.9375    9.2045 H           1 ACT       0.1814
     57 H23        -5.0092   15.2144    3.5557 H           1 ACT       0.1815
     58 H24        -5.2461   14.7899    5.1752 H           1 ACT       0.1815
@<TRIPOS>BOND
     1     1     2   2
     2     1     3   1
     3     4     1  am
     4     5     4   1
     5     6     5   1
     6     5     8   1
     7     6     7   2
     8    25     6  am
     9     8     9   1
    10     9    10  ar
    11     9    11  ar
    12    10    12  ar
    13    11    13  ar
    14    12    14  ar
    15    13    14  ar
    16    14    15   1
    17    15    16   1
    18    16    17  ar
    19    16    18  ar
    20    16    19  ar
    21    21    20   1
    22    22    20   1
    23    22    21   1
    24    22    23   1
    25    22    25   1
    26    23    24   2
    27    23    26  am
    28    26    27   1
    29    27    28   1
    30    27    30   1
    31    28    29   2
    32    28    34  am
    33    30    31   1
    34    31    32   2
    35    31    33  am
    36     3    35   1
    37     3    36   1
    38     3    37   1
    39     4    38   1
    40     5    39   1
    41     8    40   1
    42     8    41   1
    43    10    42   1
    44    11    43   1
    45    12    44   1
    46    13    45   1
    47    20    46   1
    48    20    47   1
    49    21    48   1
    50    21    49   1
    51    25    50   1
    52    26    51   1
    53    27    52   1
    54    30    53   1
    55    30    54   1
    56    33    55   1
    57    33    56   1
    58    34    57   1
    59    34    58   1
@<TRIPOS>SUBSTRUCTURE
     1  ACT      1

