@<TRIPOS>MOLECULE
3ov1_ligand_047
    58    59
SMALL
GAST_HUCK
****
This file was generated by PARSER (from files_GN.cpp)

@<TRIPOS>ATOM
      1 C         -18.5749   14.8068    2.7686 C.2         1 ACT       0.1753
      2 O         -19.5044   14.1186    3.1799 O.2         1 ACT      -0.3972
      3 CH3       -18.5536   16.1977    3.1643 C.3         1 ACT       0.0258
      4 N         -17.5801   14.3025    2.0496 N.am        1 ACT      -0.2628
      5 CA        -17.3397   12.9366    1.6487 C.3         1 ACT       0.1465
      6 C         -18.2564   12.4827    0.6018 C.2         1 ACT       0.2045
      7 O         -17.8133   12.1950   -0.5088 O.2         1 ACT      -0.3944
      8 CB        -17.2692   11.9116    2.8277 C.3         1 ACT       0.0400
      9 CG        -16.7525   12.4774    4.1016 C.ar        1 ACT      -0.0004
     10 CD1       -17.6482   12.8687    5.1263 C.ar        1 ACT      -0.0239
     11 CD2       -15.3623   12.6498    4.3148 C.ar        1 ACT      -0.0239
     12 CE1       -17.1706   13.4354    6.3208 C.ar        1 ACT       0.0115
     13 CE2       -14.8847   13.1973    5.5210 C.ar        1 ACT       0.0115
     14 CZ        -15.7881   13.6110    6.5243 C.ar        1 ACT       0.1728
     15 OH        -15.3184   14.0910    7.7138 O.3         1 ACT      -0.2040
     16 P         -15.3939   15.6404    7.8460 P.3         1 ACT       0.1348
     17 O1P       -15.4622   16.3749    6.6035 O.co2       1 ACT      -0.6653
     18 O2P       -16.5162   15.9971    8.6787 O.co2       1 ACT      -0.6653
     19 O3P       -14.2089   16.0709    8.5468 O.co2       1 ACT      -0.6653
     20 CB        -21.2740   10.5559    0.4035 C.3         1 ACT      -0.0184
     21 CG        -21.9618   11.8964    0.6607 C.3         1 ACT      -0.0184
     22 CA        -20.5713   11.8594   -0.0206 C.3         1 ACT       0.1329
     23 C         -20.6330   12.3173   -1.3921 C.2         1 ACT       0.2267
     24 O         -20.8409   13.5063   -1.5964 O.2         1 ACT      -0.3419
     25 N         -19.5538   12.3635    0.8546 N.am        1 ACT      -0.2738
     26 N         -20.4955   11.4395   -2.3787 N.am        1 ACT      -0.2608
     27 CA        -20.6432   11.6845   -3.7887 C.3         1 ACT       0.1474
     28 C         -21.8312   10.9931   -4.2809 C.2         1 ACT       0.2017
     29 O         -22.1875    9.9160   -3.8214 O.2         1 ACT      -0.3945
     30 CB        -19.3508   11.2296   -4.5257 C.3         1 ACT       0.0774
     31 CG        -19.3237   11.5793   -5.9351 C.2         1 ACT       0.1781
     32 OD1       -19.1655   12.7454   -6.2746 O.2         1 ACT      -0.3970
     33 ND2       -19.4913   10.6835   -6.8834 N.am        1 ACT      -0.3007
     34 N         -22.5136   11.4585   -5.3059 N.am        1 ACT      -0.2988
     35 H1        -17.6693   16.7173    2.7817 H           1 ACT       0.0467
     36 H2        -18.5469   16.2655    4.2578 H           1 ACT       0.0467
     37 H3        -19.4435   16.7062    2.7830 H           1 ACT       0.0467
     38 H4        -16.8804   14.9302    1.8063 H           1 ACT       0.1885
     39 H5        -16.3324   12.9589    1.2163 H           1 ACT       0.0840
     40 H6        -16.6263   11.0718    2.5363 H           1 ACT       0.0584
     41 H7        -18.2666   11.4942    2.9926 H           1 ACT       0.0584
     42 H8        -18.6578   12.7559    5.0081 H           1 ACT       0.0703
     43 H9        -14.6916   12.3758    3.5921 H           1 ACT       0.0703
     44 H10       -17.8331   13.7316    7.0375 H           1 ACT       0.0736
     45 H11       -13.8797   13.3063    5.6632 H           1 ACT       0.0736
     46 H12       -21.7159    9.9518   -0.3870 H           1 ACT       0.0276
     47 H13       -20.8771   10.0540    1.2889 H           1 ACT       0.0276
     48 H14       -22.0243   12.1525    1.7201 H           1 ACT       0.0276
     49 H15       -22.8502   12.0425    0.0402 H           1 ACT       0.0276
     50 H16       -19.8413   12.5953    1.7489 H           1 ACT       0.1839
     51 H17       -20.3344   10.5150   -2.1210 H           1 ACT       0.1891
     52 H18       -20.7739   12.7623   -3.9696 H           1 ACT       0.0828
     53 H19       -19.2380   10.1477   -4.4000 H           1 ACT       0.0551
     54 H20       -18.4891   11.6960   -4.0457 H           1 ACT       0.0551
     55 H21       -19.4827   10.9589   -7.8161 H           1 ACT       0.1814
     56 H22       -19.6496    9.7517   -6.6604 H           1 ACT       0.1814
     57 H23       -23.2820   10.9697   -5.6434 H           1 ACT       0.1815
     58 H24       -22.2392   12.2806   -5.7412 H           1 ACT       0.1815
@<TRIPOS>BOND
     1     1     2   2
     2     1     3   1
     3     4     1  am
     4     5     4   1
     5     6     5   1
     6     5     8   1
     7     6     7   2
     8    25     6  am
     9     8     9   1
    10     9    10  ar
    11     9    11  ar
    12    10    12  ar
    13    11    13  ar
    14    12    14  ar
    15    13    14  ar
    16    14    15   1
    17    15    16   1
    18    16    17  ar
    19    16    18  ar
    20    16    19  ar
    21    21    20   1
    22    22    20   1
    23    22    21   1
    24    22    23   1
    25    22    25   1
    26    23    24   2
    27    23    26  am
    28    26    27   1
    29    27    28   1
    30    27    30   1
    31    28    29   2
    32    28    34  am
    33    30    31   1
    34    31    32   2
    35    31    33  am
    36     3    35   1
    37     3    36   1
    38     3    37   1
    39     4    38   1
    40     5    39   1
    41     8    40   1
    42     8    41   1
    43    10    42   1
    44    11    43   1
    45    12    44   1
    46    13    45   1
    47    20    46   1
    48    20    47   1
    49    21    48   1
    50    21    49   1
    51    25    50   1
    52    26    51   1
    53    27    52   1
    54    30    53   1
    55    30    54   1
    56    33    55   1
    57    33    56   1
    58    34    57   1
    59    34    58   1
@<TRIPOS>SUBSTRUCTURE
     1  ACT      1

