@<TRIPOS>MOLECULE
3ov1_ligand_007
    58    59
SMALL
GAST_HUCK
****
This file was generated by PARSER (from files_GN.cpp)

@<TRIPOS>ATOM
      1 C         -16.7053   12.7080    1.7350 C.2         1 ACT       0.1753
      2 O         -17.6640   13.4408    1.5186 O.2         1 ACT      -0.3972
      3 CH3       -16.4646   12.2837    3.0959 C.3         1 ACT       0.0258
      4 N         -15.8900   12.3208    0.7668 N.am        1 ACT      -0.2628
      5 CA        -15.9649   12.6973   -0.6244 C.3         1 ACT       0.1465
      6 C         -17.1384   12.1172   -1.2691 C.2         1 ACT       0.2045
      7 O         -17.5045   11.0010   -0.9202 O.2         1 ACT      -0.3944
      8 CB        -14.6664   12.3077   -1.4007 C.3         1 ACT       0.0400
      9 CG        -13.3834   12.5361   -0.6697 C.ar        1 ACT      -0.0004
     10 CD1       -13.1617   13.7136    0.0844 C.ar        1 ACT      -0.0239
     11 CD2       -12.3387   11.5844   -0.7404 C.ar        1 ACT      -0.0239
     12 CE1       -11.9562   13.9063    0.7900 C.ar        1 ACT       0.0115
     13 CE2       -11.1289   11.7840   -0.0498 C.ar        1 ACT       0.0115
     14 CZ        -10.9412   12.9252    0.7527 C.ar        1 ACT       0.1728
     15 OH         -9.7422   13.1166    1.3858 O.3         1 ACT      -0.2040
     16 P          -9.7871   12.9152    2.9289 P.3         1 ACT       0.1348
     17 O1P        -8.4305   12.9503    3.4051 O.co2       1 ACT      -0.6653
     18 O2P       -10.4769   13.9991    3.5870 O.co2       1 ACT      -0.6653
     19 O3P       -10.3592   11.6555    3.3438 O.co2       1 ACT      -0.6653
     20 CB        -18.9603   12.5566   -4.4411 C.3         1 ACT      -0.0184
     21 CG        -18.8286   11.1222   -3.9175 C.3         1 ACT      -0.0184
     22 CA        -18.9474   12.2956   -2.9179 C.3         1 ACT       0.1329
     23 C         -20.2100   12.4402   -2.2215 C.2         1 ACT       0.2267
     24 O         -20.8019   13.5136   -2.2869 O.2         1 ACT      -0.3419
     25 N         -17.7684   12.7556   -2.2519 N.am        1 ACT      -0.2738
     26 N         -20.6835   11.4111   -1.5334 N.am        1 ACT      -0.2608
     27 CA        -21.9696   11.2787   -0.9049 C.3         1 ACT       0.1474
     28 C         -23.0061   11.1545   -1.9268 C.2         1 ACT       0.2017
     29 O         -23.3015   10.0499   -2.3730 O.2         1 ACT      -0.3945
     30 CB        -22.2521   12.3555    0.2001 C.3         1 ACT       0.0774
     31 CG        -21.7434   11.9771    1.5108 C.2         1 ACT       0.1781
     32 OD1       -20.5510   12.0822    1.7629 O.2         1 ACT      -0.3970
     33 ND2       -22.5436   11.4616    2.4228 N.am        1 ACT      -0.3007
     34 N         -23.6220   12.2020   -2.4404 N.am        1 ACT      -0.2988
     35 H1        -15.5668   11.6604    3.1717 H           1 ACT       0.0467
     36 H2        -17.3175   11.7047    3.4553 H           1 ACT       0.0467
     37 H3        -16.3345   13.1562    3.7413 H           1 ACT       0.0467
     38 H4        -15.1521   11.7504    1.0287 H           1 ACT       0.1885
     39 H5        -16.0427   13.7883   -0.6567 H           1 ACT       0.0840
     40 H6        -14.6299   12.8910   -2.3240 H           1 ACT       0.0584
     41 H7        -14.7366   11.2556   -1.6975 H           1 ACT       0.0584
     42 H8        -13.8824   14.4364    0.1331 H           1 ACT       0.0703
     43 H9        -12.4463   10.7306   -1.2985 H           1 ACT       0.0703
     44 H10       -11.8169   14.7645    1.3278 H           1 ACT       0.0736
     45 H11       -10.3806   11.0922   -0.1330 H           1 ACT       0.0736
     46 H12       -19.9158   12.7456   -4.9367 H           1 ACT       0.0276
     47 H13       -18.0504   12.9519   -4.8943 H           1 ACT       0.0276
     48 H14       -17.8445   10.6678   -4.0194 H           1 ACT       0.0276
     49 H15       -19.7128   10.4993   -4.0718 H           1 ACT       0.0276
     50 H16       -17.4370   13.6282   -2.5166 H           1 ACT       0.1839
     51 H17       -20.1348   10.6097   -1.5137 H           1 ACT       0.1891
     52 H18       -21.9380   10.3064   -0.3958 H           1 ACT       0.0828
     53 H19       -23.3307   12.5238    0.2741 H           1 ACT       0.0551
     54 H20       -21.8122   13.3197   -0.0861 H           1 ACT       0.0551
     55 H21       -22.1938   11.1990    3.2918 H           1 ACT       0.1814
     56 H22       -23.4945   11.3486    2.2282 H           1 ACT       0.1814
     57 H23       -24.2988   12.0875   -3.1307 H           1 ACT       0.1815
     58 H24       -23.4182   13.0945   -2.1153 H           1 ACT       0.1815
@<TRIPOS>BOND
     1     1     2   2
     2     1     3   1
     3     4     1  am
     4     5     4   1
     5     6     5   1
     6     5     8   1
     7     6     7   2
     8    25     6  am
     9     8     9   1
    10     9    10  ar
    11     9    11  ar
    12    10    12  ar
    13    11    13  ar
    14    12    14  ar
    15    13    14  ar
    16    14    15   1
    17    15    16   1
    18    16    17  ar
    19    16    18  ar
    20    16    19  ar
    21    21    20   1
    22    22    20   1
    23    22    21   1
    24    22    23   1
    25    22    25   1
    26    23    24   2
    27    23    26  am
    28    26    27   1
    29    27    28   1
    30    27    30   1
    31    28    29   2
    32    28    34  am
    33    30    31   1
    34    31    32   2
    35    31    33  am
    36     3    35   1
    37     3    36   1
    38     3    37   1
    39     4    38   1
    40     5    39   1
    41     8    40   1
    42     8    41   1
    43    10    42   1
    44    11    43   1
    45    12    44   1
    46    13    45   1
    47    20    46   1
    48    20    47   1
    49    21    48   1
    50    21    49   1
    51    25    50   1
    52    26    51   1
    53    27    52   1
    54    30    53   1
    55    30    54   1
    56    33    55   1
    57    33    56   1
    58    34    57   1
    59    34    58   1
@<TRIPOS>SUBSTRUCTURE
     1  ACT      1

