@<TRIPOS>MOLECULE
3ov1_ligand_039
    58    59
SMALL
GAST_HUCK
****
This file was generated by PARSER (from files_GN.cpp)

@<TRIPOS>ATOM
      1 C         -16.8099   13.8969    6.4714 C.2         1 ACT       0.1753
      2 O         -16.5219   13.4198    7.5595 O.2         1 ACT      -0.3972
      3 CH3       -17.5690   13.0554    5.5746 C.3         1 ACT       0.0258
      4 N         -16.4152   15.1039    6.0762 N.am        1 ACT      -0.2628
      5 CA        -15.6043   16.1089    6.7267 C.3         1 ACT       0.1465
      6 C         -14.3737   16.3271    5.9633 C.2         1 ACT       0.2045
      7 O         -13.8482   17.4334    6.0165 O.2         1 ACT      -0.3944
      8 CB        -15.3255   15.9340    8.2569 C.3         1 ACT       0.0400
      9 CG        -14.8674   17.1715    8.9529 C.ar        1 ACT      -0.0004
     10 CD1       -13.4917   17.4759    9.0741 C.ar        1 ACT      -0.0239
     11 CD2       -15.8088   18.0580    9.5283 C.ar        1 ACT      -0.0239
     12 CE1       -13.0715   18.6482    9.7276 C.ar        1 ACT       0.0115
     13 CE2       -15.3884   19.2205   10.1982 C.ar        1 ACT       0.0115
     14 CZ        -14.0167   19.5396   10.2770 C.ar        1 ACT       0.1728
     15 OH        -13.5947   20.6442   10.9666 O.3         1 ACT      -0.2040
     16 P         -13.5413   21.9445   10.1113 P.3         1 ACT       0.1348
     17 O1P       -14.8487   22.3731    9.6856 O.co2       1 ACT      -0.6653
     18 O2P       -13.0114   22.9895   10.9489 O.co2       1 ACT      -0.6653
     19 O3P       -12.6670   21.8312    8.9728 O.co2       1 ACT      -0.6653
     20 CB        -12.8172   15.1488    2.9261 C.3         1 ACT      -0.0184
     21 CG        -12.5914   16.6001    3.3548 C.3         1 ACT      -0.0184
     22 CA        -12.6449   15.4844    4.4228 C.3         1 ACT       0.1329
     23 C         -11.3962   15.1406    5.0645 C.2         1 ACT       0.2267
     24 O         -10.9150   15.9729    5.8225 O.2         1 ACT      -0.3419
     25 N         -13.8331   15.3703    5.2125 N.am        1 ACT      -0.2738
     26 N         -10.8746   13.9246    4.9299 N.am        1 ACT      -0.2608
     27 CA         -9.7834   13.3826    5.7014 C.3         1 ACT       0.1474
     28 C          -8.5110   14.0948    5.5458 C.2         1 ACT       0.2017
     29 O          -8.3422   14.9580    4.6957 O.2         1 ACT      -0.3945
     30 CB         -9.6576   11.8421    5.4617 C.3         1 ACT       0.0774
     31 CG         -8.8588   11.4606    4.3115 C.2         1 ACT       0.1781
     32 OD1        -9.2745   11.6438    3.1773 O.2         1 ACT      -0.3970
     33 ND2        -7.6452   10.9730    4.4674 N.am        1 ACT      -0.3007
     34 N          -7.4767   13.7978    6.3002 N.am        1 ACT      -0.2988
     35 H1        -17.7266   13.5327    4.6045 H           1 ACT       0.0467
     36 H2        -18.5437   12.8340    6.0159 H           1 ACT       0.0467
     37 H3        -17.0314   12.1177    5.4148 H           1 ACT       0.0467
     38 H4        -16.6875   15.3409    5.1743 H           1 ACT       0.1885
     39 H5        -16.2099   17.0175    6.6283 H           1 ACT       0.0840
     40 H6        -14.5976   15.1312    8.4089 H           1 ACT       0.0584
     41 H7        -16.2488   15.6140    8.7459 H           1 ACT       0.0584
     42 H8        -12.7878   16.8483    8.6802 H           1 ACT       0.0703
     43 H9        -16.8102   17.8576    9.4724 H           1 ACT       0.0703
     44 H10       -12.0739   18.8553    9.8005 H           1 ACT       0.0736
     45 H11       -16.0840   19.8380   10.6236 H           1 ACT       0.0736
     46 H12       -11.9725   14.7038    2.3965 H           1 ACT       0.0276
     47 H13       -13.8305   14.9368    2.5790 H           1 ACT       0.0276
     48 H14       -13.4691   17.2421    3.2608 H           1 ACT       0.0276
     49 H15       -11.6101   17.0064    3.0988 H           1 ACT       0.0276
     50 H16       -14.2685   14.5042    5.2092 H           1 ACT       0.1839
     51 H17       -11.3241   13.3191    4.3157 H           1 ACT       0.1891
     52 H18       -10.0770   13.4959    6.7487 H           1 ACT       0.0828
     53 H19       -10.6511   11.3938    5.3619 H           1 ACT       0.0551
     54 H20        -9.2241   11.3960    6.3605 H           1 ACT       0.0551
     55 H21        -7.1014   10.7494    3.6952 H           1 ACT       0.1814
     56 H22        -7.2851   10.8532    5.3632 H           1 ACT       0.1814
     57 H23        -6.6360   14.2678    6.1772 H           1 ACT       0.1815
     58 H24        -7.5408   13.0877    6.9583 H           1 ACT       0.1815
@<TRIPOS>BOND
     1     1     2   2
     2     1     3   1
     3     4     1  am
     4     5     4   1
     5     6     5   1
     6     5     8   1
     7     6     7   2
     8    25     6  am
     9     8     9   1
    10     9    10  ar
    11     9    11  ar
    12    10    12  ar
    13    11    13  ar
    14    12    14  ar
    15    13    14  ar
    16    14    15   1
    17    15    16   1
    18    16    17  ar
    19    16    18  ar
    20    16    19  ar
    21    21    20   1
    22    22    20   1
    23    22    21   1
    24    22    23   1
    25    22    25   1
    26    23    24   2
    27    23    26  am
    28    26    27   1
    29    27    28   1
    30    27    30   1
    31    28    29   2
    32    28    34  am
    33    30    31   1
    34    31    32   2
    35    31    33  am
    36     3    35   1
    37     3    36   1
    38     3    37   1
    39     4    38   1
    40     5    39   1
    41     8    40   1
    42     8    41   1
    43    10    42   1
    44    11    43   1
    45    12    44   1
    46    13    45   1
    47    20    46   1
    48    20    47   1
    49    21    48   1
    50    21    49   1
    51    25    50   1
    52    26    51   1
    53    27    52   1
    54    30    53   1
    55    30    54   1
    56    33    55   1
    57    33    56   1
    58    34    57   1
    59    34    58   1
@<TRIPOS>SUBSTRUCTURE
     1  ACT      1

