@<TRIPOS>MOLECULE
3ov1_ligand_054
    58    59
SMALL
GAST_HUCK
****
This file was generated by PARSER (from files_GN.cpp)

@<TRIPOS>ATOM
      1 C         -10.5833    8.4067   -1.8453 C.2         1 ACT       0.1753
      2 O          -9.5183    8.5712   -1.2388 O.2         1 ACT      -0.3972
      3 CH3       -11.6591    7.7499   -1.1566 C.3         1 ACT       0.0258
      4 N         -10.7683    8.7642   -3.1084 N.am        1 ACT      -0.2628
      5 CA         -9.8980    9.4817   -4.0009 C.3         1 ACT       0.1465
      6 C         -10.3563    9.2292   -5.3759 C.2         1 ACT       0.2045
      7 O         -10.8330    8.1382   -5.6713 O.2         1 ACT      -0.3944
      8 CB         -8.3549    9.2114   -3.8845 C.3         1 ACT       0.0400
      9 CG         -7.5136   10.4148   -4.1671 C.ar        1 ACT      -0.0004
     10 CD1        -7.5983   11.5420   -3.3123 C.ar        1 ACT      -0.0239
     11 CD2        -6.5604   10.4351   -5.2170 C.ar        1 ACT      -0.0239
     12 CE1        -6.8050   12.6782   -3.5371 C.ar        1 ACT       0.0115
     13 CE2        -5.7686   11.5834   -5.4405 C.ar        1 ACT       0.0115
     14 CZ         -5.8998   12.7208   -4.6178 C.ar        1 ACT       0.1728
     15 OH         -5.0609   13.7875   -4.7870 O.3         1 ACT      -0.2040
     16 P          -5.6537   14.9023   -5.6934 P.3         1 ACT       0.1348
     17 O1P        -5.9803   14.4192   -7.0107 O.co2       1 ACT      -0.6653
     18 O2P        -6.8054   15.5344   -5.1006 O.co2       1 ACT      -0.6653
     19 O3P        -4.6406   15.9140   -5.8527 O.co2       1 ACT      -0.6653
     20 CB        -11.9479   11.0493   -7.7840 C.3         1 ACT      -0.0184
     21 CG        -10.5979   11.4658   -8.3746 C.3         1 ACT      -0.0184
     22 CA        -10.7230   10.1170   -7.6252 C.3         1 ACT       0.1329
     23 C         -10.4772    8.9591   -8.4878 C.2         1 ACT       0.2267
     24 O          -9.5060    8.2587   -8.2324 O.2         1 ACT      -0.3419
     25 N         -10.1674   10.1622   -6.3005 N.am        1 ACT      -0.2738
     26 N         -11.2468    8.6894   -9.5411 N.am        1 ACT      -0.2608
     27 CA        -11.0537    7.7097  -10.5811 C.3         1 ACT       0.1474
     28 C         -11.2931    6.3465  -10.1038 C.2         1 ACT       0.2017
     29 O         -11.9950    5.5829  -10.7550 O.2         1 ACT      -0.3945
     30 CB         -9.6959    7.8578  -11.3576 C.3         1 ACT       0.0774
     31 CG         -9.7814    7.5447  -12.7777 C.2         1 ACT       0.1781
     32 OD1        -9.4802    8.3811  -13.6181 O.2         1 ACT      -0.3970
     33 ND2       -10.1781    6.3693  -13.2167 N.am        1 ACT      -0.3007
     34 N         -10.7471    5.8765   -9.0008 N.am        1 ACT      -0.2988
     35 H1        -12.5466    7.5962   -1.7967 H           1 ACT       0.0467
     36 H2        -11.9594    8.3724   -0.3104 H           1 ACT       0.0467
     37 H3        -11.3374    6.7706   -0.7859 H           1 ACT       0.0467
     38 H4        -11.6943    8.6718   -3.4060 H           1 ACT       0.1885
     39 H5        -10.0954   10.5403   -3.7686 H           1 ACT       0.0840
     40 H6         -8.0800    8.3690   -4.5332 H           1 ACT       0.0584
     41 H7         -8.1006    8.8684   -2.8805 H           1 ACT       0.0584
     42 H8         -8.2592   11.5423   -2.5249 H           1 ACT       0.0703
     43 H9         -6.4494    9.6191   -5.8244 H           1 ACT       0.0703
     44 H10        -6.8809   13.4733   -2.9073 H           1 ACT       0.0736
     45 H11        -5.0897   11.5720   -6.1996 H           1 ACT       0.0736
     46 H12       -12.7138   10.7848   -8.5148 H           1 ACT       0.0276
     47 H13       -12.2521   11.6135   -6.9021 H           1 ACT       0.0276
     48 H14       -10.1381   12.3072   -7.8542 H           1 ACT       0.0276
     49 H15       -10.5955   11.4704   -9.4700 H           1 ACT       0.0276
     50 H16        -9.7370   10.9887   -6.0322 H           1 ACT       0.1839
     51 H17       -12.0131    9.2629   -9.6696 H           1 ACT       0.1891
     52 H18       -11.8497    7.9521  -11.2944 H           1 ACT       0.0828
     53 H19        -8.9282    7.2190  -10.9099 H           1 ACT       0.0551
     54 H20        -9.3478    8.8894  -11.2495 H           1 ACT       0.0551
     55 H21       -10.2271    6.2025  -14.1705 H           1 ACT       0.1814
     56 H22       -10.4167    5.6662  -12.5963 H           1 ACT       0.1814
     57 H23       -10.8992    4.9548   -8.7367 H           1 ACT       0.1815
     58 H24       -10.2459    6.4756   -8.4209 H           1 ACT       0.1815
@<TRIPOS>BOND
     1     1     2   2
     2     1     3   1
     3     4     1  am
     4     5     4   1
     5     6     5   1
     6     5     8   1
     7     6     7   2
     8    25     6  am
     9     8     9   1
    10     9    10  ar
    11     9    11  ar
    12    10    12  ar
    13    11    13  ar
    14    12    14  ar
    15    13    14  ar
    16    14    15   1
    17    15    16   1
    18    16    17  ar
    19    16    18  ar
    20    16    19  ar
    21    21    20   1
    22    22    20   1
    23    22    21   1
    24    22    23   1
    25    22    25   1
    26    23    24   2
    27    23    26  am
    28    26    27   1
    29    27    28   1
    30    27    30   1
    31    28    29   2
    32    28    34  am
    33    30    31   1
    34    31    32   2
    35    31    33  am
    36     3    35   1
    37     3    36   1
    38     3    37   1
    39     4    38   1
    40     5    39   1
    41     8    40   1
    42     8    41   1
    43    10    42   1
    44    11    43   1
    45    12    44   1
    46    13    45   1
    47    20    46   1
    48    20    47   1
    49    21    48   1
    50    21    49   1
    51    25    50   1
    52    26    51   1
    53    27    52   1
    54    30    53   1
    55    30    54   1
    56    33    55   1
    57    33    56   1
    58    34    57   1
    59    34    58   1
@<TRIPOS>SUBSTRUCTURE
     1  ACT      1

