@<TRIPOS>MOLECULE
3ov1_ligand_024
    58    59
SMALL
GAST_HUCK
****
This file was generated by PARSER (from files_GN.cpp)

@<TRIPOS>ATOM
      1 C         -15.9964   12.5789    1.7744 C.2         1 ACT       0.1753
      2 O         -16.3643   11.4606    1.4138 O.2         1 ACT      -0.3972
      3 CH3       -15.8201   12.8181    3.1876 C.3         1 ACT       0.0258
      4 N         -15.7409   13.5567    0.9047 N.am        1 ACT      -0.2628
      5 CA        -15.8622   13.6310   -0.5325 C.3         1 ACT       0.1465
      6 C         -16.7605   12.6710   -1.1879 C.2         1 ACT       0.2045
      7 O         -16.5876   11.4698   -1.0125 O.2         1 ACT      -0.3944
      8 CB        -14.4284   13.6568   -1.1579 C.3         1 ACT       0.0400
      9 CG        -14.3500   13.7748   -2.6445 C.ar        1 ACT      -0.0004
     10 CD1       -15.3064   14.5384   -3.3543 C.ar        1 ACT      -0.0239
     11 CD2       -13.3035   13.1631   -3.3785 C.ar        1 ACT      -0.0239
     12 CE1       -15.2465   14.6449   -4.7588 C.ar        1 ACT       0.0115
     13 CE2       -13.2309   13.2913   -4.7767 C.ar        1 ACT       0.0115
     14 CZ        -14.2272   13.9947   -5.4814 C.ar        1 ACT       0.1728
     15 OH        -14.1730   14.1505   -6.8437 O.3         1 ACT      -0.2040
     16 P         -14.7360   12.9305   -7.6347 P.3         1 ACT       0.1348
     17 O1P       -13.8185   11.8173   -7.5861 O.co2       1 ACT      -0.6653
     18 O2P       -16.0421   12.5057   -7.1951 O.co2       1 ACT      -0.6653
     19 O3P       -14.8441   13.3169   -9.0202 O.co2       1 ACT      -0.6653
     20 CB        -18.7691   12.5815   -4.1137 C.3         1 ACT      -0.0184
     21 CG        -18.5171   11.1834   -3.5503 C.3         1 ACT      -0.0184
     22 CA        -18.7729   12.3562   -2.5796 C.3         1 ACT       0.1329
     23 C         -20.0731   12.4781   -1.9599 C.2         1 ACT       0.2267
     24 O         -20.6070   13.5811   -1.9400 O.2         1 ACT      -0.3419
     25 N         -17.7297   13.1224   -1.9780 N.am        1 ACT      -0.2738
     26 N         -20.6197   11.4082   -1.3971 N.am        1 ACT      -0.2608
     27 CA        -21.9320   11.2952   -0.8175 C.3         1 ACT       0.1474
     28 C         -22.9401   11.1969   -1.8684 C.2         1 ACT       0.2017
     29 O         -23.2563   10.1044   -2.3199 O.2         1 ACT      -0.3945
     30 CB        -22.2441   12.3840    0.2634 C.3         1 ACT       0.0774
     31 CG        -21.7718   12.0247    1.5880 C.2         1 ACT       0.1781
     32 OD1       -20.5899   12.1501    1.8774 O.2         1 ACT      -0.3970
     33 ND2       -22.5934   11.5070    2.4784 N.am        1 ACT      -0.3007
     34 N         -23.5061   12.2582   -2.4020 N.am        1 ACT      -0.2988
     35 H1        -15.5530   13.8656    3.3925 H           1 ACT       0.0467
     36 H2        -15.0229   12.1680    3.5698 H           1 ACT       0.0467
     37 H3        -16.7545   12.5864    3.7166 H           1 ACT       0.0467
     38 H4        -15.4024   14.3754    1.3128 H           1 ACT       0.1885
     39 H5        -16.2719   14.6393   -0.6945 H           1 ACT       0.0840
     40 H6        -13.8945   12.7629   -0.8252 H           1 ACT       0.0584
     41 H7        -13.8863   14.5116   -0.7431 H           1 ACT       0.0584
     42 H8        -16.0566   15.0228   -2.8562 H           1 ACT       0.0703
     43 H9        -12.5770   12.6324   -2.8948 H           1 ACT       0.0703
     44 H10       -15.9542   15.1960   -5.2542 H           1 ACT       0.0736
     45 H11       -12.4611   12.8578   -5.2849 H           1 ACT       0.0736
     46 H12       -19.7299   12.6862   -4.6228 H           1 ACT       0.0276
     47 H13       -17.8830   13.0422   -4.5616 H           1 ACT       0.0276
     48 H14       -17.4928   10.8214   -3.6164 H           1 ACT       0.0276
     49 H15       -19.3345   10.4723   -3.6878 H           1 ACT       0.0276
     50 H16       -17.7718   14.0825   -2.1206 H           1 ACT       0.1839
     51 H17       -20.1020   10.5846   -1.4374 H           1 ACT       0.1891
     52 H18       -21.9226   10.3271   -0.2998 H           1 ACT       0.0828
     53 H19       -23.3241   12.5449    0.3008 H           1 ACT       0.0551
     54 H20       -21.8012   13.3449   -0.0208 H           1 ACT       0.0551
     55 H21       -22.2620   11.2376    3.3477 H           1 ACT       0.1814
     56 H22       -23.5295   11.3720    2.2455 H           1 ACT       0.1814
     57 H23       -24.1482   12.1594   -3.1224 H           1 ACT       0.1815
     58 H24       -23.2770   13.1458   -2.0827 H           1 ACT       0.1815
@<TRIPOS>BOND
     1     1     2   2
     2     1     3   1
     3     4     1  am
     4     5     4   1
     5     6     5   1
     6     5     8   1
     7     6     7   2
     8    25     6  am
     9     8     9   1
    10     9    10  ar
    11     9    11  ar
    12    10    12  ar
    13    11    13  ar
    14    12    14  ar
    15    13    14  ar
    16    14    15   1
    17    15    16   1
    18    16    17  ar
    19    16    18  ar
    20    16    19  ar
    21    21    20   1
    22    22    20   1
    23    22    21   1
    24    22    23   1
    25    22    25   1
    26    23    24   2
    27    23    26  am
    28    26    27   1
    29    27    28   1
    30    27    30   1
    31    28    29   2
    32    28    34  am
    33    30    31   1
    34    31    32   2
    35    31    33  am
    36     3    35   1
    37     3    36   1
    38     3    37   1
    39     4    38   1
    40     5    39   1
    41     8    40   1
    42     8    41   1
    43    10    42   1
    44    11    43   1
    45    12    44   1
    46    13    45   1
    47    20    46   1
    48    20    47   1
    49    21    48   1
    50    21    49   1
    51    25    50   1
    52    26    51   1
    53    27    52   1
    54    30    53   1
    55    30    54   1
    56    33    55   1
    57    33    56   1
    58    34    57   1
    59    34    58   1
@<TRIPOS>SUBSTRUCTURE
     1  ACT      1

