@<TRIPOS>MOLECULE
3ov1_ligand_091
    58    59
SMALL
GAST_HUCK
****
This file was generated by PARSER (from files_GN.cpp)

@<TRIPOS>ATOM
      1 C         -16.0598   14.3050   -0.4556 C.2         1 ACT       0.1753
      2 O         -15.6436   13.5120   -1.2911 O.2         1 ACT      -0.3972
      3 CH3       -15.7167   15.6986   -0.6194 C.3         1 ACT       0.0258
      4 N         -16.7684   13.9079    0.5944 N.am        1 ACT      -0.2628
      5 CA        -17.0686   12.5457    0.9722 C.3         1 ACT       0.1465
      6 C         -18.1091   12.0181    0.0903 C.2         1 ACT       0.2045
      7 O         -17.8065   11.1649   -0.7360 O.2         1 ACT      -0.3944
      8 CB        -17.4279   12.3558    2.4955 C.3         1 ACT       0.0400
      9 CG        -17.3133   13.5900    3.3232 C.ar        1 ACT      -0.0004
     10 CD1       -18.4229   14.4538    3.4814 C.ar        1 ACT      -0.0239
     11 CD2       -16.0724   13.9754    3.8831 C.ar        1 ACT      -0.0239
     12 CE1       -18.2836   15.6830    4.1495 C.ar        1 ACT       0.0115
     13 CE2       -15.9426   15.1942    4.5736 C.ar        1 ACT       0.0115
     14 CZ        -17.0419   16.0754    4.6891 C.ar        1 ACT       0.1728
     15 OH        -16.9738   17.2530    5.3861 O.3         1 ACT      -0.2040
     16 P         -16.1896   18.4022    4.6814 P.3         1 ACT       0.1348
     17 O1P       -16.5864   18.6566    3.3214 O.co2       1 ACT      -0.6653
     18 O2P       -16.4303   19.6148    5.4199 O.co2       1 ACT      -0.6653
     19 O3P       -14.7693   18.1754    4.7415 O.co2       1 ACT      -0.6653
     20 CB        -21.2839   10.8232    0.0042 C.3         1 ACT      -0.0184
     21 CG        -21.8187   12.2466    0.1672 C.3         1 ACT      -0.0184
     22 CA        -20.4796   12.0042   -0.5706 C.3         1 ACT       0.1329
     23 C         -20.5456   12.2952   -1.9858 C.2         1 ACT       0.2267
     24 O         -20.7336   13.4556   -2.3291 O.2         1 ACT      -0.3419
     25 N         -19.3566   12.4713    0.1801 N.am        1 ACT      -0.2738
     26 N         -20.3568   11.3174   -2.8596 N.am        1 ACT      -0.2608
     27 CA        -20.4951   11.3933   -4.2901 C.3         1 ACT       0.1474
     28 C         -21.3637   10.3177   -4.7651 C.2         1 ACT       0.2017
     29 O         -21.2927    9.1853   -4.3050 O.2         1 ACT      -0.3945
     30 CB        -19.0711   11.3302   -4.9103 C.3         1 ACT       0.0774
     31 CG        -19.0586   11.5457   -6.3452 C.2         1 ACT       0.1781
     32 OD1       -18.8809   12.6687   -6.7976 O.2         1 ACT      -0.3970
     33 ND2       -19.3250   10.5819   -7.2001 N.am        1 ACT      -0.3007
     34 N         -22.1654   10.4834   -5.7952 N.am        1 ACT      -0.2988
     35 H1        -16.1050   16.3044    0.2017 H           1 ACT       0.0467
     36 H2        -16.1310   16.0790   -1.5545 H           1 ACT       0.0467
     37 H3        -14.6303   15.8088   -0.6454 H           1 ACT       0.0467
     38 H4        -17.0392   14.6110    1.2068 H           1 ACT       0.1885
     39 H5        -16.1450   11.9725    0.8165 H           1 ACT       0.0840
     40 H6        -16.7695   11.5940    2.9190 H           1 ACT       0.0584
     41 H7        -18.4326   11.9355    2.6200 H           1 ACT       0.0584
     42 H8        -19.3333   14.2054    3.0786 H           1 ACT       0.0703
     43 H9        -15.2497   13.3753    3.7697 H           1 ACT       0.0703
     44 H10       -19.0961   16.2964    4.2493 H           1 ACT       0.0736
     45 H11       -15.0422   15.4433    4.9855 H           1 ACT       0.0736
     46 H12       -21.8532   10.2038   -0.6932 H           1 ACT       0.0276
     47 H13       -20.8855   10.3681    0.9117 H           1 ACT       0.0276
     48 H14       -21.7923   12.5850    1.2060 H           1 ACT       0.0276
     49 H15       -22.7298   12.4215   -0.4137 H           1 ACT       0.0276
     50 H16       -19.5394   13.1243    0.8722 H           1 ACT       0.1839
     51 H17       -20.1171   10.4445   -2.4949 H           1 ACT       0.1891
     52 H18       -20.9468   12.3533   -4.5756 H           1 ACT       0.0828
     53 H19       -18.6044   10.3689   -4.6715 H           1 ACT       0.0551
     54 H20       -18.4608   12.1018   -4.4317 H           1 ACT       0.0551
     55 H21       -19.3724   10.7825   -8.1481 H           1 ACT       0.1814
     56 H22       -19.4866    9.6770   -6.8886 H           1 ACT       0.1814
     57 H23       -22.6963    9.7400   -6.1207 H           1 ACT       0.1815
     58 H24       -22.2006   11.3366   -6.2524 H           1 ACT       0.1815
@<TRIPOS>BOND
     1     1     2   2
     2     1     3   1
     3     4     1  am
     4     5     4   1
     5     6     5   1
     6     5     8   1
     7     6     7   2
     8    25     6  am
     9     8     9   1
    10     9    10  ar
    11     9    11  ar
    12    10    12  ar
    13    11    13  ar
    14    12    14  ar
    15    13    14  ar
    16    14    15   1
    17    15    16   1
    18    16    17  ar
    19    16    18  ar
    20    16    19  ar
    21    21    20   1
    22    22    20   1
    23    22    21   1
    24    22    23   1
    25    22    25   1
    26    23    24   2
    27    23    26  am
    28    26    27   1
    29    27    28   1
    30    27    30   1
    31    28    29   2
    32    28    34  am
    33    30    31   1
    34    31    32   2
    35    31    33  am
    36     3    35   1
    37     3    36   1
    38     3    37   1
    39     4    38   1
    40     5    39   1
    41     8    40   1
    42     8    41   1
    43    10    42   1
    44    11    43   1
    45    12    44   1
    46    13    45   1
    47    20    46   1
    48    20    47   1
    49    21    48   1
    50    21    49   1
    51    25    50   1
    52    26    51   1
    53    27    52   1
    54    30    53   1
    55    30    54   1
    56    33    55   1
    57    33    56   1
    58    34    57   1
    59    34    58   1
@<TRIPOS>SUBSTRUCTURE
     1  ACT      1

