@<TRIPOS>MOLECULE
3ov1_ligand_020
    58    59
SMALL
GAST_HUCK
****
This file was generated by PARSER (from files_GN.cpp)

@<TRIPOS>ATOM
      1 C         -19.5378   12.9315    1.6217 C.2         1 ACT       0.1753
      2 O         -18.6044   13.6136    1.2165 O.2         1 ACT      -0.3972
      3 CH3       -19.9780   11.8336    0.7937 C.3         1 ACT       0.0258
      4 N         -20.1329   13.1723    2.7844 N.am        1 ACT      -0.2628
      5 CA        -19.8524   14.2534    3.6816 C.3         1 ACT       0.1465
      6 C         -18.9916   13.7704    4.7533 C.2         1 ACT       0.2045
      7 O         -19.4340   12.9410    5.5387 O.2         1 ACT      -0.3944
      8 CB        -21.1924   14.8869    4.1771 C.3         1 ACT       0.0400
      9 CG        -21.0481   16.1233    5.0036 C.ar        1 ACT      -0.0004
     10 CD1       -21.7928   16.2954    6.1963 C.ar        1 ACT      -0.0239
     11 CD2       -20.1908   17.1726    4.5997 C.ar        1 ACT      -0.0239
     12 CE1       -21.6792   17.4803    6.9488 C.ar        1 ACT       0.0115
     13 CE2       -20.0600   18.3448    5.3559 C.ar        1 ACT       0.0115
     14 CZ        -20.8309   18.5223    6.5207 C.ar        1 ACT       0.1728
     15 OH        -20.6942   19.6534    7.2781 O.3         1 ACT      -0.2040
     16 P         -21.6769   20.8026    6.8911 P.3         1 ACT       0.1348
     17 O1P       -21.4988   21.8636    7.8469 O.co2       1 ACT      -0.6653
     18 O2P       -21.3875   21.3503    5.5920 O.co2       1 ACT      -0.6653
     19 O3P       -23.0584   20.4056    6.9590 O.co2       1 ACT      -0.6653
     20 CB        -16.3823   12.2746    5.8821 C.3         1 ACT      -0.0184
     21 CG        -15.4474   13.2663    5.1902 C.3         1 ACT      -0.0184
     22 CA        -16.7779   13.7622    5.8067 C.3         1 ACT       0.1329
     23 C         -16.6361   14.5821    6.9896 C.2         1 ACT       0.2267
     24 O         -17.1836   14.2063    8.0172 O.2         1 ACT      -0.3419
     25 N         -17.7312   14.1841    4.8297 N.am        1 ACT      -0.2738
     26 N         -15.9740   15.7272    6.9000 N.am        1 ACT      -0.2608
     27 CA        -15.7788   16.7090    7.9342 C.3         1 ACT       0.1474
     28 C         -16.0590   18.0140    7.3479 C.2         1 ACT       0.2017
     29 O         -15.3342   18.4733    6.4719 O.2         1 ACT      -0.3945
     30 CB        -14.3256   16.5774    8.4880 C.3         1 ACT       0.0774
     31 CG        -13.9084   17.5180    9.5152 C.2         1 ACT       0.1781
     32 OD1       -12.7242   17.6098    9.7931 O.2         1 ACT      -0.3970
     33 ND2       -14.7464   18.1834   10.2814 N.am        1 ACT      -0.3007
     34 N         -17.0973   18.7325    7.7075 N.am        1 ACT      -0.2988
     35 H1        -20.8356   11.3147    1.2290 H           1 ACT       0.0467
     36 H2        -19.1643   11.1164    0.6700 H           1 ACT       0.0467
     37 H3        -20.2683   12.2106   -0.1895 H           1 ACT       0.0467
     38 H4        -20.8191   12.5502    3.0641 H           1 ACT       0.1885
     39 H5        -19.3183   15.0167    3.1146 H           1 ACT       0.0840
     40 H6        -21.7609   14.1226    4.7205 H           1 ACT       0.0584
     41 H7        -21.7942   15.1592    3.3049 H           1 ACT       0.0584
     42 H8        -22.4355   15.5710    6.5208 H           1 ACT       0.0703
     43 H9        -19.6379   17.1059    3.7482 H           1 ACT       0.0703
     44 H10       -22.2188   17.5890    7.8098 H           1 ACT       0.0736
     45 H11       -19.4181   19.0753    5.0430 H           1 ACT       0.0736
     46 H12       -16.0215   11.8975    6.8406 H           1 ACT       0.0276
     47 H13       -16.8892   11.5943    5.2006 H           1 ACT       0.0276
     48 H14       -15.4014   13.1404    4.1055 H           1 ACT       0.0276
     49 H15       -14.5172   13.4470    5.7359 H           1 ACT       0.0276
     50 H16       -17.4305   14.8441    4.1816 H           1 ACT       0.1839
     51 H17       -15.5518   15.9159    6.0451 H           1 ACT       0.1891
     52 H18       -16.4768   16.5222    8.7604 H           1 ACT       0.0828
     53 H19       -13.6292   16.6498    7.6476 H           1 ACT       0.0551
     54 H20       -14.2143   15.5784    8.9145 H           1 ACT       0.0551
     55 H21       -14.4052   18.7388   11.0009 H           1 ACT       0.1814
     56 H22       -15.7030   18.0946   10.1626 H           1 ACT       0.1814
     57 H23       -17.2671   19.5851    7.2799 H           1 ACT       0.1815
     58 H24       -17.7141   18.4008    8.3785 H           1 ACT       0.1815
@<TRIPOS>BOND
     1     1     2   2
     2     1     3   1
     3     4     1  am
     4     5     4   1
     5     6     5   1
     6     5     8   1
     7     6     7   2
     8    25     6  am
     9     8     9   1
    10     9    10  ar
    11     9    11  ar
    12    10    12  ar
    13    11    13  ar
    14    12    14  ar
    15    13    14  ar
    16    14    15   1
    17    15    16   1
    18    16    17  ar
    19    16    18  ar
    20    16    19  ar
    21    21    20   1
    22    22    20   1
    23    22    21   1
    24    22    23   1
    25    22    25   1
    26    23    24   2
    27    23    26  am
    28    26    27   1
    29    27    28   1
    30    27    30   1
    31    28    29   2
    32    28    34  am
    33    30    31   1
    34    31    32   2
    35    31    33  am
    36     3    35   1
    37     3    36   1
    38     3    37   1
    39     4    38   1
    40     5    39   1
    41     8    40   1
    42     8    41   1
    43    10    42   1
    44    11    43   1
    45    12    44   1
    46    13    45   1
    47    20    46   1
    48    20    47   1
    49    21    48   1
    50    21    49   1
    51    25    50   1
    52    26    51   1
    53    27    52   1
    54    30    53   1
    55    30    54   1
    56    33    55   1
    57    33    56   1
    58    34    57   1
    59    34    58   1
@<TRIPOS>SUBSTRUCTURE
     1  ACT      1

