@<TRIPOS>MOLECULE
3ov1_ligand_072
    58    59
SMALL
GAST_HUCK
****
This file was generated by PARSER (from files_GN.cpp)

@<TRIPOS>ATOM
      1 C          -9.6594   12.1038    5.1456 C.2         1 ACT       0.1753
      2 O         -10.4447   12.0686    6.0860 O.2         1 ACT      -0.3972
      3 CH3        -9.1123   10.8582    4.6559 C.3         1 ACT       0.0258
      4 N          -9.3399   13.2457    4.5467 N.am        1 ACT      -0.2628
      5 CA         -9.8520   14.5568    4.8643 C.3         1 ACT       0.1465
      6 C         -11.2843   14.6899    4.6019 C.2         1 ACT       0.2045
      7 O         -11.8965   15.5886    5.1684 O.2         1 ACT      -0.3944
      8 CB         -9.0365   15.6346    4.0800 C.3         1 ACT       0.0400
      9 CG         -7.6489   15.8217    4.6035 C.ar        1 ACT      -0.0004
     10 CD1        -6.5721   15.0494    4.1124 C.ar        1 ACT      -0.0239
     11 CD2        -7.3848   16.8022    5.5884 C.ar        1 ACT      -0.0239
     12 CE1        -5.2668   15.2556    4.5906 C.ar        1 ACT       0.0115
     13 CE2        -6.0793   17.0100    6.0626 C.ar        1 ACT       0.0115
     14 CZ         -5.0107   16.2224    5.5837 C.ar        1 ACT       0.1728
     15 OH         -3.7286   16.4774    5.9849 O.3         1 ACT      -0.2040
     16 P          -3.2143   15.5553    7.1298 P.3         1 ACT       0.1348
     17 O1P        -3.2632   14.1609    6.7773 O.co2       1 ACT      -0.6653
     18 O2P        -1.8282   15.8821    7.3531 O.co2       1 ACT      -0.6653
     19 O3P        -3.9018   15.7751    8.3767 O.co2       1 ACT      -0.6653
     20 CB        -13.6927   14.5543    2.1395 C.3         1 ACT      -0.0184
     21 CG        -13.6791   13.0274    2.2399 C.3         1 ACT      -0.0184
     22 CA        -13.3234   13.8812    3.4779 C.3         1 ACT       0.1329
     23 C         -14.2726   13.7092    4.5731 C.2         1 ACT       0.2267
     24 O         -13.8861   13.0999    5.5666 O.2         1 ACT      -0.3419
     25 N         -11.9187   13.8635    3.7716 N.am        1 ACT      -0.2738
     26 N         -15.5066   14.1975    4.5081 N.am        1 ACT      -0.2608
     27 CA        -16.5797   14.0080    5.4549 C.3         1 ACT       0.1474
     28 C         -16.1299   14.1803    6.8369 C.2         1 ACT       0.2017
     29 O         -16.6583   13.5814    7.7676 O.2         1 ACT      -0.3945
     30 CB        -17.3583   12.6712    5.2151 C.3         1 ACT       0.0774
     31 CG        -17.4343   12.2508    3.8276 C.2         1 ACT       0.1781
     32 OD1       -16.6013   11.4850    3.3645 O.2         1 ACT      -0.3970
     33 ND2       -18.4391   12.6110    3.0602 N.am        1 ACT      -0.3007
     34 N         -15.1952   15.0514    7.1562 N.am        1 ACT      -0.2988
     35 H1         -8.4320   11.0196    3.8155 H           1 ACT       0.0467
     36 H2         -9.9265   10.2110    4.3221 H           1 ACT       0.0467
     37 H3         -8.5613   10.3588    5.4544 H           1 ACT       0.0467
     38 H4         -8.6881   13.1852    3.8309 H           1 ACT       0.1885
     39 H5         -9.6913   14.7148    5.9361 H           1 ACT       0.0840
     40 H6         -9.5576   16.5963    4.1269 H           1 ACT       0.0584
     41 H7         -9.0135   15.3559    3.0175 H           1 ACT       0.0584
     42 H8         -6.7364   14.3342    3.3971 H           1 ACT       0.0703
     43 H9         -8.1414   17.3818    5.9577 H           1 ACT       0.0703
     44 H10        -4.5011   14.6987    4.2101 H           1 ACT       0.0736
     45 H11        -5.9027   17.7338    6.7606 H           1 ACT       0.0736
     46 H12       -14.6907   14.9962    2.0438 H           1 ACT       0.0276
     47 H13       -12.8646   14.9721    1.5519 H           1 ACT       0.0276
     48 H14       -12.8605   12.5558    1.6868 H           1 ACT       0.0276
     49 H15       -14.6752   12.5757    2.1816 H           1 ACT       0.0276
     50 H16       -11.3849   13.1885    3.3164 H           1 ACT       0.1839
     51 H17       -15.7153   14.7265    3.7196 H           1 ACT       0.1891
     52 H18       -17.2907   14.8211    5.2670 H           1 ACT       0.0828
     53 H19       -18.3884   12.7866    5.5745 H           1 ACT       0.0551
     54 H20       -16.8975   11.8788    5.8198 H           1 ACT       0.0551
     55 H21       -18.4978   12.2691    2.1533 H           1 ACT       0.1814
     56 H22       -19.1323   13.1991    3.4008 H           1 ACT       0.1814
     57 H23       -14.9405   15.1732    8.0905 H           1 ACT       0.1815
     58 H24       -14.7511   15.5724    6.4649 H           1 ACT       0.1815
@<TRIPOS>BOND
     1     1     2   2
     2     1     3   1
     3     4     1  am
     4     5     4   1
     5     6     5   1
     6     5     8   1
     7     6     7   2
     8    25     6  am
     9     8     9   1
    10     9    10  ar
    11     9    11  ar
    12    10    12  ar
    13    11    13  ar
    14    12    14  ar
    15    13    14  ar
    16    14    15   1
    17    15    16   1
    18    16    17  ar
    19    16    18  ar
    20    16    19  ar
    21    21    20   1
    22    22    20   1
    23    22    21   1
    24    22    23   1
    25    22    25   1
    26    23    24   2
    27    23    26  am
    28    26    27   1
    29    27    28   1
    30    27    30   1
    31    28    29   2
    32    28    34  am
    33    30    31   1
    34    31    32   2
    35    31    33  am
    36     3    35   1
    37     3    36   1
    38     3    37   1
    39     4    38   1
    40     5    39   1
    41     8    40   1
    42     8    41   1
    43    10    42   1
    44    11    43   1
    45    12    44   1
    46    13    45   1
    47    20    46   1
    48    20    47   1
    49    21    48   1
    50    21    49   1
    51    25    50   1
    52    26    51   1
    53    27    52   1
    54    30    53   1
    55    30    54   1
    56    33    55   1
    57    33    56   1
    58    34    57   1
    59    34    58   1
@<TRIPOS>SUBSTRUCTURE
     1  ACT      1

