@<TRIPOS>MOLECULE
3ov1_ligand_046
    58    59
SMALL
GAST_HUCK
****
This file was generated by PARSER (from files_GN.cpp)

@<TRIPOS>ATOM
      1 C         -15.5561   14.3497   -2.8808 C.2         1 ACT       0.1753
      2 O         -16.4990   13.5907   -3.0834 O.2         1 ACT      -0.3972
      3 CH3       -15.5407   15.6128   -3.5860 C.3         1 ACT       0.0258
      4 N         -14.5827   14.0325   -2.0378 N.am        1 ACT      -0.2628
      5 CA        -14.4557   12.8213   -1.2601 C.3         1 ACT       0.1465
      6 C         -15.5261   12.6840   -0.2668 C.2         1 ACT       0.2045
      7 O         -16.0376   11.5759   -0.1200 O.2         1 ACT      -0.3944
      8 CB        -13.0332   12.7452   -0.5994 C.3         1 ACT       0.0400
      9 CG        -12.0390   12.0173   -1.4489 C.ar        1 ACT      -0.0004
     10 CD1       -11.4839   10.7838   -1.0325 C.ar        1 ACT      -0.0239
     11 CD2       -11.6555   12.5337   -2.7081 C.ar        1 ACT      -0.0239
     12 CE1       -10.6170   10.0620   -1.8734 C.ar        1 ACT       0.0115
     13 CE2       -10.7801   11.8148   -3.5462 C.ar        1 ACT       0.0115
     14 CZ        -10.2845   10.5518   -3.1519 C.ar        1 ACT       0.1728
     15 OH         -9.4137    9.8203   -3.9216 O.3         1 ACT      -0.2040
     16 P          -9.9990    9.2139   -5.2312 P.3         1 ACT       0.1348
     17 O1P       -10.0192   10.1927   -6.2943 O.co2       1 ACT      -0.6653
     18 O2P        -9.1163    8.1622   -5.6661 O.co2       1 ACT      -0.6653
     19 O3P       -11.3104    8.6338   -5.0842 O.co2       1 ACT      -0.6653
     20 CB        -18.3737   13.9061    0.8751 C.3         1 ACT      -0.0184
     21 CG        -18.0283   12.6886    1.7387 C.3         1 ACT      -0.0184
     22 CA        -16.9546   13.7711    1.4735 C.3         1 ACT       0.1329
     23 C         -16.6318   14.6134    2.6086 C.2         1 ACT       0.2267
     24 O         -17.0732   15.7600    2.6544 O.2         1 ACT      -0.3419
     25 N         -15.9259   13.7105    0.4689 N.am        1 ACT      -0.2738
     26 N         -15.7598   14.1807    3.5068 N.am        1 ACT      -0.2608
     27 CA        -15.2761   14.9151    4.6447 C.3         1 ACT       0.1474
     28 C         -14.0549   14.2712    5.1112 C.2         1 ACT       0.2017
     29 O         -14.0789   13.1864    5.6746 O.2         1 ACT      -0.3945
     30 CB        -16.3525   15.1094    5.7645 C.3         1 ACT       0.0774
     31 CG        -16.8942   13.8885    6.3398 C.2         1 ACT       0.1781
     32 OD1       -16.6994   13.6052    7.5111 O.2         1 ACT      -0.3970
     33 ND2       -17.6277   13.0633    5.6246 N.am        1 ACT      -0.3007
     34 N         -12.8706   14.7720    4.8331 N.am        1 ACT      -0.2988
     35 H1        -14.6541   16.2036   -3.3425 H           1 ACT       0.0467
     36 H2        -16.4248   16.1989   -3.3227 H           1 ACT       0.0467
     37 H3        -15.5464   15.4352   -4.6631 H           1 ACT       0.0467
     38 H4        -13.8703   14.6841   -1.9432 H           1 ACT       0.1885
     39 H5        -14.5416   11.9832   -1.9664 H           1 ACT       0.0840
     40 H6        -13.0995   12.2580    0.3791 H           1 ACT       0.0584
     41 H7        -12.6519   13.7498   -0.3980 H           1 ACT       0.0584
     42 H8        -11.7070   10.3963   -0.1108 H           1 ACT       0.0703
     43 H9        -12.0138   13.4341   -3.0309 H           1 ACT       0.0703
     44 H10       -10.2244    9.1729   -1.5503 H           1 ACT       0.0736
     45 H11       -10.5228   12.2095   -4.4500 H           1 ACT       0.0736
     46 H12       -19.0688   14.6119    1.3436 H           1 ACT       0.0276
     47 H13       -18.5066   13.6688   -0.1848 H           1 ACT       0.0276
     48 H14       -18.0145   11.7561    1.1687 H           1 ACT       0.0276
     49 H15       -18.5676   12.6979    2.6910 H           1 ACT       0.0276
     50 H16       -15.4713   14.5515    0.3057 H           1 ACT       0.1839
     51 H17       -15.3726   13.3004    3.3573 H           1 ACT       0.1891
     52 H18       -15.0060   15.9203    4.2935 H           1 ACT       0.0828
     53 H19       -17.1871   15.6850    5.3572 H           1 ACT       0.0551
     54 H20       -15.9083   15.7225    6.5553 H           1 ACT       0.0551
     55 H21       -17.9626   12.2432    6.0175 H           1 ACT       0.1814
     56 H22       -17.8205   13.2626    4.6966 H           1 ACT       0.1814
     57 H23       -12.0725   14.2953    5.1046 H           1 ACT       0.1815
     58 H24       -12.7943   15.5961    4.3253 H           1 ACT       0.1815
@<TRIPOS>BOND
     1     1     2   2
     2     1     3   1
     3     4     1  am
     4     5     4   1
     5     6     5   1
     6     5     8   1
     7     6     7   2
     8    25     6  am
     9     8     9   1
    10     9    10  ar
    11     9    11  ar
    12    10    12  ar
    13    11    13  ar
    14    12    14  ar
    15    13    14  ar
    16    14    15   1
    17    15    16   1
    18    16    17  ar
    19    16    18  ar
    20    16    19  ar
    21    21    20   1
    22    22    20   1
    23    22    21   1
    24    22    23   1
    25    22    25   1
    26    23    24   2
    27    23    26  am
    28    26    27   1
    29    27    28   1
    30    27    30   1
    31    28    29   2
    32    28    34  am
    33    30    31   1
    34    31    32   2
    35    31    33  am
    36     3    35   1
    37     3    36   1
    38     3    37   1
    39     4    38   1
    40     5    39   1
    41     8    40   1
    42     8    41   1
    43    10    42   1
    44    11    43   1
    45    12    44   1
    46    13    45   1
    47    20    46   1
    48    20    47   1
    49    21    48   1
    50    21    49   1
    51    25    50   1
    52    26    51   1
    53    27    52   1
    54    30    53   1
    55    30    54   1
    56    33    55   1
    57    33    56   1
    58    34    57   1
    59    34    58   1
@<TRIPOS>SUBSTRUCTURE
     1  ACT      1

