@<TRIPOS>MOLECULE
3ov1_ligand_029
    58    59
SMALL
GAST_HUCK
****
This file was generated by PARSER (from files_GN.cpp)

@<TRIPOS>ATOM
      1 C         -16.6118   14.4070    6.8927 C.2         1 ACT       0.1753
      2 O         -16.7977   13.2685    7.2967 O.2         1 ACT      -0.3972
      3 CH3       -16.0938   15.3654    7.8412 C.3         1 ACT       0.0258
      4 N         -16.8858   14.7722    5.6445 N.am        1 ACT      -0.2628
      5 CA        -17.4713   14.0006    4.5761 C.3         1 ACT       0.1465
      6 C         -18.9182   13.8468    4.7616 C.2         1 ACT       0.2045
      7 O         -19.3389   13.0922    5.6316 O.2         1 ACT      -0.3944
      8 CB        -16.7327   12.6468    4.2590 C.3         1 ACT       0.0400
      9 CG        -15.8892   12.6929    3.0338 C.ar        1 ACT      -0.0004
     10 CD1       -14.5725   13.2048    3.0840 C.ar        1 ACT      -0.0239
     11 CD2       -16.4065   12.2803    1.7834 C.ar        1 ACT      -0.0239
     12 CE1       -13.7930   13.2975    1.9154 C.ar        1 ACT       0.0115
     13 CE2       -15.6249   12.3687    0.6172 C.ar        1 ACT       0.0115
     14 CZ        -14.3136   12.8938    0.6682 C.ar        1 ACT       0.1728
     15 OH        -13.4809   12.9621   -0.4215 O.3         1 ACT      -0.2040
     16 P         -13.9518   13.8467   -1.6218 P.3         1 ACT       0.1348
     17 O1P       -12.7924   14.4090   -2.2406 O.co2       1 ACT      -0.6653
     18 O2P       -14.5955   13.0148   -2.6094 O.co2       1 ACT      -0.6653
     19 O3P       -14.8328   14.9218   -1.2608 O.co2       1 ACT      -0.6653
     20 CB        -21.9734   15.0809    5.1287 C.3         1 ACT      -0.0184
     21 CG        -21.8459   15.7932    3.7806 C.3         1 ACT      -0.0184
     22 CA        -21.1907   14.4058    3.9821 C.3         1 ACT       0.1329
     23 C         -21.8098   13.3626    3.1929 C.2         1 ACT       0.2267
     24 O         -22.4688   12.5022    3.7620 O.2         1 ACT      -0.3419
     25 N         -19.7636   14.4897    3.9614 N.am        1 ACT      -0.2738
     26 N         -21.6042   13.3337    1.8823 N.am        1 ACT      -0.2608
     27 CA        -22.1405   12.3837    0.9428 C.3         1 ACT       0.1474
     28 C         -21.0952   11.4160    0.6218 C.2         1 ACT       0.2017
     29 O         -21.3218   10.2149    0.6509 O.2         1 ACT      -0.3945
     30 CB        -22.6930   13.0886   -0.3377 C.3         1 ACT       0.0774
     31 CG        -23.4929   14.2767   -0.0819 C.2         1 ACT       0.1781
     32 OD1       -23.0456   15.3877   -0.3294 O.2         1 ACT      -0.3970
     33 ND2       -24.7093   14.2100    0.4134 N.am        1 ACT      -0.3007
     34 N         -19.8680   11.7914    0.3288 N.am        1 ACT      -0.2988
     35 H1        -16.0578   16.3717    7.4226 H           1 ACT       0.0467
     36 H2        -15.0849   15.0784    8.1431 H           1 ACT       0.0467
     37 H3        -16.7318   15.3880    8.7277 H           1 ACT       0.0467
     38 H4        -16.6681   15.6930    5.4234 H           1 ACT       0.1885
     39 H5        -17.3351   14.6496    3.7031 H           1 ACT       0.0840
     40 H6        -17.4559   11.8358    4.1510 H           1 ACT       0.0584
     41 H7        -16.0981   12.3439    5.0899 H           1 ACT       0.0584
     42 H8        -14.1725   13.5061    3.9770 H           1 ACT       0.0703
     43 H9        -17.3557   11.9059    1.7090 H           1 ACT       0.0703
     44 H10       -12.8350   13.6514    1.9804 H           1 ACT       0.0736
     45 H11       -16.0099   12.0538   -0.2762 H           1 ACT       0.0736
     46 H12       -22.9705   14.6947    5.3500 H           1 ACT       0.0276
     47 H13       -21.3845   15.5154    5.9385 H           1 ACT       0.0276
     48 H14       -21.2032   16.6751    3.8120 H           1 ACT       0.0276
     49 H15       -22.7900   15.8551    3.2306 H           1 ACT       0.0276
     50 H16       -19.3788   15.0486    3.2685 H           1 ACT       0.1839
     51 H17       -21.0139   14.0120    1.5156 H           1 ACT       0.1891
     52 H18       -22.9851   11.8486    1.3912 H           1 ACT       0.0828
     53 H19       -23.3117   12.3794   -0.8975 H           1 ACT       0.0551
     54 H20       -21.8604   13.3598   -0.9955 H           1 ACT       0.0551
     55 H21       -25.2123   15.0269    0.5647 H           1 ACT       0.1814
     56 H22       -25.1117   13.3493    0.6102 H           1 ACT       0.1814
     57 H23       -19.1854   11.1252    0.1494 H           1 ACT       0.1815
     58 H24       -19.6340   12.7340    0.3184 H           1 ACT       0.1815
@<TRIPOS>BOND
     1     1     2   2
     2     1     3   1
     3     4     1  am
     4     5     4   1
     5     6     5   1
     6     5     8   1
     7     6     7   2
     8    25     6  am
     9     8     9   1
    10     9    10  ar
    11     9    11  ar
    12    10    12  ar
    13    11    13  ar
    14    12    14  ar
    15    13    14  ar
    16    14    15   1
    17    15    16   1
    18    16    17  ar
    19    16    18  ar
    20    16    19  ar
    21    21    20   1
    22    22    20   1
    23    22    21   1
    24    22    23   1
    25    22    25   1
    26    23    24   2
    27    23    26  am
    28    26    27   1
    29    27    28   1
    30    27    30   1
    31    28    29   2
    32    28    34  am
    33    30    31   1
    34    31    32   2
    35    31    33  am
    36     3    35   1
    37     3    36   1
    38     3    37   1
    39     4    38   1
    40     5    39   1
    41     8    40   1
    42     8    41   1
    43    10    42   1
    44    11    43   1
    45    12    44   1
    46    13    45   1
    47    20    46   1
    48    20    47   1
    49    21    48   1
    50    21    49   1
    51    25    50   1
    52    26    51   1
    53    27    52   1
    54    30    53   1
    55    30    54   1
    56    33    55   1
    57    33    56   1
    58    34    57   1
    59    34    58   1
@<TRIPOS>SUBSTRUCTURE
     1  ACT      1

