@<TRIPOS>MOLECULE
3ov1_ligand_052
    58    59
SMALL
GAST_HUCK
****
This file was generated by PARSER (from files_GN.cpp)

@<TRIPOS>ATOM
      1 C         -14.4804   13.9791    2.0866 C.2         1 ACT       0.1753
      2 O         -15.0884   15.0042    2.3888 O.2         1 ACT      -0.3972
      3 CH3       -13.1679   14.1206    1.4921 C.3         1 ACT       0.0258
      4 N         -14.9936   12.7710    2.2849 N.am        1 ACT      -0.2628
      5 CA        -16.3187   12.4604    2.7608 C.3         1 ACT       0.1465
      6 C         -17.2663   12.6261    1.6403 C.2         1 ACT       0.2045
      7 O         -18.3214   13.2411    1.7635 O.2         1 ACT      -0.3944
      8 CB        -16.5791   13.0810    4.1953 C.3         1 ACT       0.0400
      9 CG        -17.6898   14.0676    4.3185 C.ar        1 ACT      -0.0004
     10 CD1       -19.0232   13.6340    4.4911 C.ar        1 ACT      -0.0239
     11 CD2       -17.4372   15.4583    4.2070 C.ar        1 ACT      -0.0239
     12 CE1       -20.0879   14.5573    4.4754 C.ar        1 ACT       0.0115
     13 CE2       -18.5000   16.3768    4.1765 C.ar        1 ACT       0.0115
     14 CZ        -19.8363   15.9308    4.2641 C.ar        1 ACT       0.1728
     15 OH        -20.8691   16.8333    4.2304 O.3         1 ACT      -0.2040
     16 P         -21.4259   17.0761    2.7927 P.3         1 ACT       0.1348
     17 O1P       -22.0450   15.9003    2.2330 O.co2       1 ACT      -0.6653
     18 O2P       -22.4502   18.0843    2.9046 O.co2       1 ACT      -0.6653
     19 O3P       -20.4320   17.5869    1.8814 O.co2       1 ACT      -0.6653
     20 CB        -16.9129   12.8471   -1.9872 C.3         1 ACT      -0.0184
     21 CG        -17.1028   11.3310   -1.8825 C.3         1 ACT      -0.0184
     22 CA        -17.6551   12.2565   -0.7730 C.3         1 ACT       0.1329
     23 C         -19.1058   12.3719   -0.7471 C.2         1 ACT       0.2267
     24 O         -19.5831   13.4995   -0.7907 O.2         1 ACT      -0.3419
     25 N         -16.9021   12.1587    0.4486 N.am        1 ACT      -0.2738
     26 N         -19.8691   11.2878   -0.6439 N.am        1 ACT      -0.2608
     27 CA        -21.3082   11.1836   -0.6257 C.3         1 ACT       0.1474
     28 C         -21.8630   11.1836   -1.9775 C.2         1 ACT       0.2017
     29 O         -22.5159   10.2283   -2.3813 O.2         1 ACT      -0.3945
     30 CB        -22.0459   12.1986    0.3093 C.3         1 ACT       0.0774
     31 CG        -21.7401   11.9807    1.7128 C.2         1 ACT       0.1781
     32 OD1       -20.6242   12.2371    2.1485 O.2         1 ACT      -0.3970
     33 ND2       -22.6373   11.4997    2.5484 N.am        1 ACT      -0.3007
     34 N         -21.7396   12.2043   -2.7994 N.am        1 ACT      -0.2988
     35 H1        -12.7784   13.1590    1.1350 H           1 ACT       0.0467
     36 H2        -12.4689   14.5284    2.2301 H           1 ACT       0.0467
     37 H3        -13.2213   14.8060    0.6371 H           1 ACT       0.0467
     38 H4        -14.4364   12.0148    2.0349 H           1 ACT       0.1885
     39 H5        -16.3033   11.3789    2.9372 H           1 ACT       0.0840
     40 H6        -15.6617   13.5440    4.5794 H           1 ACT       0.0584
     41 H7        -16.7795   12.2594    4.8967 H           1 ACT       0.0584
     42 H8        -19.2351   12.6391    4.6102 H           1 ACT       0.0703
     43 H9        -16.4809   15.8007    4.0971 H           1 ACT       0.0703
     44 H10       -21.0489   14.2245    4.5875 H           1 ACT       0.0736
     45 H11       -18.3018   17.3748    4.0694 H           1 ACT       0.0736
     46 H12       -17.5008   13.3085   -2.7830 H           1 ACT       0.0276
     47 H13       -15.8879   13.1838   -1.8256 H           1 ACT       0.0276
     48 H14       -16.1693   10.7941   -1.6925 H           1 ACT       0.0276
     49 H15       -17.8045   10.9230   -2.6200 H           1 ACT       0.0276
     50 H16       -15.9842   11.8200    0.3982 H           1 ACT       0.1839
     51 H17       -19.3987   10.4360   -0.5891 H           1 ACT       0.1891
     52 H18       -21.5095   10.1889   -0.2062 H           1 ACT       0.0828
     53 H19       -23.1269   12.0905    0.1533 H           1 ACT       0.0551
     54 H20       -21.7806   13.2265    0.0509 H           1 ACT       0.0551
     55 H21       -22.3961   11.3186    3.4717 H           1 ACT       0.1814
     56 H22       -23.5383   11.2988    2.2397 H           1 ACT       0.1814
     57 H23       -22.1358   12.1673   -3.6845 H           1 ACT       0.1815
     58 H24       -21.2591   12.9995   -2.5281 H           1 ACT       0.1815
@<TRIPOS>BOND
     1     1     2   2
     2     1     3   1
     3     4     1  am
     4     5     4   1
     5     6     5   1
     6     5     8   1
     7     6     7   2
     8    25     6  am
     9     8     9   1
    10     9    10  ar
    11     9    11  ar
    12    10    12  ar
    13    11    13  ar
    14    12    14  ar
    15    13    14  ar
    16    14    15   1
    17    15    16   1
    18    16    17  ar
    19    16    18  ar
    20    16    19  ar
    21    21    20   1
    22    22    20   1
    23    22    21   1
    24    22    23   1
    25    22    25   1
    26    23    24   2
    27    23    26  am
    28    26    27   1
    29    27    28   1
    30    27    30   1
    31    28    29   2
    32    28    34  am
    33    30    31   1
    34    31    32   2
    35    31    33  am
    36     3    35   1
    37     3    36   1
    38     3    37   1
    39     4    38   1
    40     5    39   1
    41     8    40   1
    42     8    41   1
    43    10    42   1
    44    11    43   1
    45    12    44   1
    46    13    45   1
    47    20    46   1
    48    20    47   1
    49    21    48   1
    50    21    49   1
    51    25    50   1
    52    26    51   1
    53    27    52   1
    54    30    53   1
    55    30    54   1
    56    33    55   1
    57    33    56   1
    58    34    57   1
    59    34    58   1
@<TRIPOS>SUBSTRUCTURE
     1  ACT      1

