@<TRIPOS>MOLECULE
3ov1_ligand_065
    58    59
SMALL
GAST_HUCK
****
This file was generated by PARSER (from files_GN.cpp)

@<TRIPOS>ATOM
      1 C         -10.1885    8.8524   -5.6698 C.2         1 ACT       0.1753
      2 O         -10.3196    8.0850   -4.7176 O.2         1 ACT      -0.3972
      3 CH3       -10.4716    8.3609   -6.9961 C.3         1 ACT       0.0258
      4 N          -9.8099   10.1180   -5.5086 N.am        1 ACT      -0.2628
      5 CA         -9.4823   10.8318   -4.3090 C.3         1 ACT       0.1465
      6 C          -8.0625   10.6680   -3.9954 C.2         1 ACT       0.2045
      7 O          -7.2614   11.2416   -4.7192 O.2         1 ACT      -0.3944
      8 CB        -10.4827   10.5534   -3.1313 C.3         1 ACT       0.0400
      9 CG        -10.4407   11.4061   -1.8994 C.ar        1 ACT      -0.0004
     10 CD1       -11.1675   10.9663   -0.7630 C.ar        1 ACT      -0.0239
     11 CD2        -9.7283   12.6302   -1.7923 C.ar        1 ACT      -0.0239
     12 CE1       -11.1982   11.7272    0.4202 C.ar        1 ACT       0.0115
     13 CE2        -9.7670   13.3931   -0.6131 C.ar        1 ACT       0.0115
     14 CZ        -10.5251   12.9633    0.4922 C.ar        1 ACT       0.1728
     15 OH        -10.5438   13.6874    1.6548 O.3         1 ACT      -0.2040
     16 P         -11.6607   14.7760    1.6890 P.3         1 ACT       0.1348
     17 O1P       -12.9792   14.2615    1.4133 O.co2       1 ACT      -0.6653
     18 O2P       -11.6924   15.3113    3.0274 O.co2       1 ACT      -0.6653
     19 O3P       -11.3783   15.8784    0.8019 O.co2       1 ACT      -0.6653
     20 CB         -6.0101    8.3682   -1.9318 C.3         1 ACT      -0.0184
     21 CG         -5.6434    8.5272   -3.4089 C.3         1 ACT      -0.0184
     22 CA         -6.2429    9.7253   -2.6361 C.3         1 ACT       0.1329
     23 C          -5.3472   10.8618   -2.3991 C.2         1 ACT       0.2267
     24 O          -5.7932   11.9971   -2.5373 O.2         1 ACT      -0.3419
     25 N          -7.6172    9.9676   -2.9546 N.am        1 ACT      -0.2738
     26 N          -4.0759   10.7008   -2.0418 N.am        1 ACT      -0.2608
     27 CA         -3.0776   11.7066   -1.7983 C.3         1 ACT       0.1474
     28 C          -3.4982   12.6566   -0.7706 C.2         1 ACT       0.2017
     29 O          -3.2876   13.8622   -0.8471 O.2         1 ACT      -0.3945
     30 CB         -2.5624   12.3102   -3.1515 C.3         1 ACT       0.0774
     31 CG         -1.1153   12.3077   -3.2953 C.2         1 ACT       0.1781
     32 OD1        -0.5145   13.2846   -3.7334 O.2         1 ACT      -0.3970
     33 ND2        -0.4250   11.2092   -3.0408 N.am        1 ACT      -0.3007
     34 N          -4.1137   12.2173    0.3062 N.am        1 ACT      -0.2988
     35 H1        -10.2203    9.1069   -7.7650 H           1 ACT       0.0467
     36 H2        -11.5367    8.1160   -7.0669 H           1 ACT       0.0467
     37 H3         -9.8783    7.4575   -7.1874 H           1 ACT       0.0467
     38 H4         -9.7564   10.6565   -6.3137 H           1 ACT       0.1885
     39 H5         -9.6055   11.8918   -4.5581 H           1 ACT       0.0840
     40 H6        -10.3613    9.5155   -2.8151 H           1 ACT       0.0584
     41 H7        -11.4916   10.6442   -3.5313 H           1 ACT       0.0584
     42 H8        -11.6881   10.0853   -0.7881 H           1 ACT       0.0703
     43 H9         -9.1757   12.9844   -2.5726 H           1 ACT       0.0703
     44 H10       -11.7207   11.3826    1.2335 H           1 ACT       0.0736
     45 H11        -9.2444   14.2739   -0.5618 H           1 ACT       0.0736
     46 H12        -5.1540    8.2521   -1.2629 H           1 ACT       0.0276
     47 H13        -6.8949    7.7492   -1.7522 H           1 ACT       0.0276
     48 H14        -6.3083    8.0066   -4.1014 H           1 ACT       0.0276
     49 H15        -4.5734    8.5441   -3.6192 H           1 ACT       0.0276
     50 H16        -8.2670    9.5670   -2.3561 H           1 ACT       0.1839
     51 H17        -3.7465    9.7908   -1.9779 H           1 ACT       0.1891
     52 H18        -2.2517   11.1501   -1.3398 H           1 ACT       0.0828
     53 H19        -2.9540   13.3288   -3.2748 H           1 ACT       0.0551
     54 H20        -2.9640   11.7311   -3.9972 H           1 ACT       0.0551
     55 H21         0.5398   11.1973   -3.1912 H           1 ACT       0.1814
     56 H22        -0.8833   10.4280   -2.6870 H           1 ACT       0.1814
     57 H23        -4.3828   12.8470    0.9966 H           1 ACT       0.1815
     58 H24        -4.3070   11.2677    0.3982 H           1 ACT       0.1815
@<TRIPOS>BOND
     1     1     2   2
     2     1     3   1
     3     4     1  am
     4     5     4   1
     5     6     5   1
     6     5     8   1
     7     6     7   2
     8    25     6  am
     9     8     9   1
    10     9    10  ar
    11     9    11  ar
    12    10    12  ar
    13    11    13  ar
    14    12    14  ar
    15    13    14  ar
    16    14    15   1
    17    15    16   1
    18    16    17  ar
    19    16    18  ar
    20    16    19  ar
    21    21    20   1
    22    22    20   1
    23    22    21   1
    24    22    23   1
    25    22    25   1
    26    23    24   2
    27    23    26  am
    28    26    27   1
    29    27    28   1
    30    27    30   1
    31    28    29   2
    32    28    34  am
    33    30    31   1
    34    31    32   2
    35    31    33  am
    36     3    35   1
    37     3    36   1
    38     3    37   1
    39     4    38   1
    40     5    39   1
    41     8    40   1
    42     8    41   1
    43    10    42   1
    44    11    43   1
    45    12    44   1
    46    13    45   1
    47    20    46   1
    48    20    47   1
    49    21    48   1
    50    21    49   1
    51    25    50   1
    52    26    51   1
    53    27    52   1
    54    30    53   1
    55    30    54   1
    56    33    55   1
    57    33    56   1
    58    34    57   1
    59    34    58   1
@<TRIPOS>SUBSTRUCTURE
     1  ACT      1

