@<TRIPOS>MOLECULE
3ov1_ligand_077
    58    59
SMALL
GAST_HUCK
****
This file was generated by PARSER (from files_GN.cpp)

@<TRIPOS>ATOM
      1 C         -10.4607    8.6761   -5.9560 C.2         1 ACT       0.1753
      2 O         -10.3418    7.8408   -5.0652 O.2         1 ACT      -0.3972
      3 CH3       -10.5783    8.1875   -7.3123 C.3         1 ACT       0.0258
      4 N         -10.4996    9.9850   -5.7264 N.am        1 ACT      -0.2628
      5 CA        -10.3852   10.7469   -4.5037 C.3         1 ACT       0.1465
      6 C          -9.0801   11.4141   -4.4189 C.2         1 ACT       0.2045
      7 O          -8.8999   12.1829   -3.4788 O.2         1 ACT      -0.3944
      8 CB        -10.8022    9.9788   -3.1986 C.3         1 ACT       0.0400
      9 CG        -11.1888   10.8457   -2.0463 C.ar        1 ACT      -0.0004
     10 CD1       -10.1980   11.4477   -1.2307 C.ar        1 ACT      -0.0239
     11 CD2       -12.5506   11.0812   -1.7235 C.ar        1 ACT      -0.0239
     12 CE1       -10.5614   12.2920   -0.1577 C.ar        1 ACT       0.0115
     13 CE2       -12.9111   11.9256   -0.6570 C.ar        1 ACT       0.0115
     14 CZ        -11.9191   12.5727    0.1063 C.ar        1 ACT       0.1728
     15 OH        -12.2570   13.3844    1.1604 O.3         1 ACT      -0.2040
     16 P         -12.4754   14.8776    0.7599 P.3         1 ACT       0.1348
     17 O1P       -13.6159   15.0600   -0.1004 O.co2       1 ACT      -0.6653
     18 O2P       -12.7483   15.6133    1.9708 O.co2       1 ACT      -0.6653
     19 O3P       -11.3121   15.4771    0.1630 O.co2       1 ACT      -0.6653
     20 CB         -6.2039   12.0632   -6.6321 C.3         1 ACT      -0.0184
     21 CG         -6.5622   13.1855   -5.6570 C.3         1 ACT      -0.0184
     22 CA         -6.7775   11.7162   -5.2366 C.3         1 ACT       0.1329
     23 C          -5.8420   11.0473   -4.3357 C.2         1 ACT       0.2267
     24 O          -4.7760   11.5801   -4.0555 O.2         1 ACT      -0.3419
     25 N          -8.1170   11.2079   -5.3193 N.am        1 ACT      -0.2738
     26 N          -6.1545    9.8656   -3.8252 N.am        1 ACT      -0.2608
     27 CA         -5.3569    9.0673   -2.9396 C.3         1 ACT       0.1474
     28 C          -5.7348    7.6754   -3.1271 C.2         1 ACT       0.2017
     29 O          -4.9842    6.8870   -3.6839 O.2         1 ACT      -0.3945
     30 CB         -5.4915    9.5636   -1.4645 C.3         1 ACT       0.0774
     31 CG         -4.4636    9.0581   -0.5738 C.2         1 ACT       0.1781
     32 OD1        -3.6772    9.8234   -0.0331 O.2         1 ACT      -0.3970
     33 ND2        -4.3444    7.7762   -0.2991 N.am        1 ACT      -0.3007
     34 N          -6.8850    7.1945   -2.7084 N.am        1 ACT      -0.2988
     35 H1        -10.5479    9.0001   -8.0466 H           1 ACT       0.0467
     36 H2        -11.5286    7.6581   -7.4185 H           1 ACT       0.0467
     37 H3         -9.7603    7.4982   -7.5316 H           1 ACT       0.0467
     38 H4        -10.5415   10.5290   -6.5303 H           1 ACT       0.1885
     39 H5        -11.1322   11.5394   -4.6354 H           1 ACT       0.0840
     40 H6         -9.9904    9.3133   -2.8965 H           1 ACT       0.0584
     41 H7        -11.6559    9.3323   -3.4236 H           1 ACT       0.0584
     42 H8         -9.2114   11.2692   -1.4221 H           1 ACT       0.0703
     43 H9        -13.2913   10.6349   -2.2602 H           1 ACT       0.0703
     44 H10        -9.8354   12.7175    0.4217 H           1 ACT       0.0736
     45 H11       -13.9021   12.0746   -0.4438 H           1 ACT       0.0736
     46 H12        -5.1274   11.9737   -6.7981 H           1 ACT       0.0276
     47 H13        -6.8631   12.0398   -7.4997 H           1 ACT       0.0276
     48 H14        -7.4577   13.7559   -5.9170 H           1 ACT       0.0276
     49 H15        -5.7144   13.7133   -5.2176 H           1 ACT       0.0276
     50 H16        -8.2892   10.5987   -6.0602 H           1 ACT       0.1839
     51 H17        -7.0192    9.4901   -4.0751 H           1 ACT       0.1891
     52 H18        -4.2998    9.1771   -3.2383 H           1 ACT       0.0828
     53 H19        -6.4711    9.2832   -1.0633 H           1 ACT       0.0551
     54 H20        -5.4584   10.6581   -1.4606 H           1 ACT       0.0551
     55 H21        -3.6540    7.4820    0.3121 H           1 ACT       0.1814
     56 H22        -4.9680    7.1290   -0.6624 H           1 ACT       0.1814
     57 H23        -7.0947    6.2603   -2.8654 H           1 ACT       0.1815
     58 H24        -7.5199    7.7646   -2.2465 H           1 ACT       0.1815
@<TRIPOS>BOND
     1     1     2   2
     2     1     3   1
     3     4     1  am
     4     5     4   1
     5     6     5   1
     6     5     8   1
     7     6     7   2
     8    25     6  am
     9     8     9   1
    10     9    10  ar
    11     9    11  ar
    12    10    12  ar
    13    11    13  ar
    14    12    14  ar
    15    13    14  ar
    16    14    15   1
    17    15    16   1
    18    16    17  ar
    19    16    18  ar
    20    16    19  ar
    21    21    20   1
    22    22    20   1
    23    22    21   1
    24    22    23   1
    25    22    25   1
    26    23    24   2
    27    23    26  am
    28    26    27   1
    29    27    28   1
    30    27    30   1
    31    28    29   2
    32    28    34  am
    33    30    31   1
    34    31    32   2
    35    31    33  am
    36     3    35   1
    37     3    36   1
    38     3    37   1
    39     4    38   1
    40     5    39   1
    41     8    40   1
    42     8    41   1
    43    10    42   1
    44    11    43   1
    45    12    44   1
    46    13    45   1
    47    20    46   1
    48    20    47   1
    49    21    48   1
    50    21    49   1
    51    25    50   1
    52    26    51   1
    53    27    52   1
    54    30    53   1
    55    30    54   1
    56    33    55   1
    57    33    56   1
    58    34    57   1
    59    34    58   1
@<TRIPOS>SUBSTRUCTURE
     1  ACT      1

