@<TRIPOS>MOLECULE
3ov1_ligand_058
    58    59
SMALL
GAST_HUCK
****
This file was generated by PARSER (from files_GN.cpp)

@<TRIPOS>ATOM
      1 C         -16.6491   14.4851    6.9899 C.2         1 ACT       0.1753
      2 O         -16.7885   13.3522    7.4233 O.2         1 ACT      -0.3972
      3 CH3       -16.0975   15.4940    7.8647 C.3         1 ACT       0.0258
      4 N         -16.9263   14.7775    5.7253 N.am        1 ACT      -0.2628
      5 CA        -17.4475   13.9269    4.6875 C.3         1 ACT       0.1465
      6 C         -18.8982   13.7565    4.8295 C.2         1 ACT       0.2045
      7 O         -19.3402   13.0386    5.7199 O.2         1 ACT      -0.3944
      8 CB        -16.6900   12.5746    4.4857 C.3         1 ACT       0.0400
      9 CG        -15.2559   12.7288    4.0976 C.ar        1 ACT      -0.0004
     10 CD1       -14.2715   13.0267    5.0696 C.ar        1 ACT      -0.0239
     11 CD2       -14.8440   12.5726    2.7525 C.ar        1 ACT      -0.0239
     12 CE1       -12.9209   13.1791    4.7047 C.ar        1 ACT       0.0115
     13 CE2       -13.4957   12.7255    2.3871 C.ar        1 ACT       0.0115
     14 CZ        -12.5277   13.0539    3.3561 C.ar        1 ACT       0.1728
     15 OH        -11.2098   13.1550    3.0059 O.3         1 ACT      -0.2040
     16 P         -10.7462   14.6065    2.6941 P.3         1 ACT       0.1348
     17 O1P        -9.3449   14.5568    2.3668 O.co2       1 ACT      -0.6653
     18 O2P       -11.4291   15.1673    1.5570 O.co2       1 ACT      -0.6653
     19 O3P       -10.8825   15.4834    3.8286 O.co2       1 ACT      -0.6653
     20 CB        -21.9478   15.0374    5.1088 C.3         1 ACT      -0.0184
     21 CG        -21.7999   15.6958    3.7375 C.3         1 ACT      -0.0184
     22 CA        -21.1465   14.3170    4.0054 C.3         1 ACT       0.1329
     23 C         -21.7563   13.2377    3.2561 C.2         1 ACT       0.2267
     24 O         -22.3987   12.3883    3.8581 O.2         1 ACT      -0.3419
     25 N         -19.7193   14.3988    4.0070 N.am        1 ACT      -0.2738
     26 N         -21.5554   13.1749    1.9471 N.am        1 ACT      -0.2608
     27 CA        -22.0675   12.1973    1.0241 C.3         1 ACT       0.1474
     28 C         -21.0175   11.2677    0.6210 C.2         1 ACT       0.2017
     29 O         -21.2302   10.0635    0.6163 O.2         1 ACT      -0.3945
     30 CB        -22.7836   12.8771   -0.1853 C.3         1 ACT       0.0774
     31 CG        -22.0963   13.9209   -0.9328 C.2         1 ACT       0.1781
     32 OD1       -20.9805   14.3251   -0.6430 O.2         1 ACT      -0.3970
     33 ND2       -22.6958   14.4959   -1.9523 N.am        1 ACT      -0.3007
     34 N         -19.8115   11.6529    0.2620 N.am        1 ACT      -0.2988
     35 H1        -16.1040   16.4801    7.4033 H           1 ACT       0.0467
     36 H2        -15.0654   15.2402    8.1111 H           1 ACT       0.0467
     37 H3        -16.6717   15.5504    8.7900 H           1 ACT       0.0467
     38 H4        -16.7599   15.6971    5.4571 H           1 ACT       0.1885
     39 H5        -17.2660   14.4854    3.7639 H           1 ACT       0.0840
     40 H6        -17.2096   12.0101    3.6995 H           1 ACT       0.0584
     41 H7        -16.7613   11.9522    5.3805 H           1 ACT       0.0584
     42 H8        -14.5252   13.1085    6.0546 H           1 ACT       0.0703
     43 H9        -15.5247   12.3416    2.0278 H           1 ACT       0.0703
     44 H10       -12.2229   13.3853    5.4196 H           1 ACT       0.0736
     45 H11       -13.2184   12.5993    1.4144 H           1 ACT       0.0736
     46 H12       -22.9533   14.6679    5.3261 H           1 ACT       0.0276
     47 H13       -21.3756   15.5063    5.9101 H           1 ACT       0.0276
     48 H14       -21.1626   16.5845    3.7474 H           1 ACT       0.0276
     49 H15       -22.7351   15.7344    3.1676 H           1 ACT       0.0276
     50 H16       -19.3158   14.9524    3.3230 H           1 ACT       0.1839
     51 H17       -20.9815   13.8587    1.5692 H           1 ACT       0.1891
     52 H18       -22.8484   11.6061    1.5220 H           1 ACT       0.0828
     53 H19       -23.7127   13.3151    0.1903 H           1 ACT       0.0551
     54 H20       -23.0686   12.0940   -0.8971 H           1 ACT       0.0551
     55 H21       -22.2526   15.2092   -2.4377 H           1 ACT       0.1814
     56 H22       -23.5862   14.2150   -2.2170 H           1 ACT       0.1814
     57 H23       -19.1534   10.9884    0.0029 H           1 ACT       0.1815
     58 H24       -19.5712   12.5921    0.2694 H           1 ACT       0.1815
@<TRIPOS>BOND
     1     1     2   2
     2     1     3   1
     3     4     1  am
     4     5     4   1
     5     6     5   1
     6     5     8   1
     7     6     7   2
     8    25     6  am
     9     8     9   1
    10     9    10  ar
    11     9    11  ar
    12    10    12  ar
    13    11    13  ar
    14    12    14  ar
    15    13    14  ar
    16    14    15   1
    17    15    16   1
    18    16    17  ar
    19    16    18  ar
    20    16    19  ar
    21    21    20   1
    22    22    20   1
    23    22    21   1
    24    22    23   1
    25    22    25   1
    26    23    24   2
    27    23    26  am
    28    26    27   1
    29    27    28   1
    30    27    30   1
    31    28    29   2
    32    28    34  am
    33    30    31   1
    34    31    32   2
    35    31    33  am
    36     3    35   1
    37     3    36   1
    38     3    37   1
    39     4    38   1
    40     5    39   1
    41     8    40   1
    42     8    41   1
    43    10    42   1
    44    11    43   1
    45    12    44   1
    46    13    45   1
    47    20    46   1
    48    20    47   1
    49    21    48   1
    50    21    49   1
    51    25    50   1
    52    26    51   1
    53    27    52   1
    54    30    53   1
    55    30    54   1
    56    33    55   1
    57    33    56   1
    58    34    57   1
    59    34    58   1
@<TRIPOS>SUBSTRUCTURE
     1  ACT      1

