@<TRIPOS>MOLECULE
3ov1_ligand_049
    58    59
SMALL
GAST_HUCK
****
This file was generated by PARSER (from files_GN.cpp)

@<TRIPOS>ATOM
      1 C         -12.4878   14.7339   -0.6138 C.2         1 ACT       0.1753
      2 O         -11.6994   14.1544    0.1198 O.2         1 ACT      -0.3972
      3 CH3       -12.3707   16.1711   -0.7018 C.3         1 ACT       0.0258
      4 N         -13.4331   14.1086   -1.3045 N.am        1 ACT      -0.2628
      5 CA        -13.7129   12.7052   -1.4638 C.3         1 ACT       0.1465
      6 C         -15.0795   12.4420   -0.9952 C.2         1 ACT       0.2045
      7 O         -15.9140   12.1460   -1.8345 O.2         1 ACT      -0.3944
      8 CB        -12.6937   11.6517   -0.9167 C.3         1 ACT       0.0400
      9 CG        -11.3923   11.4607   -1.6400 C.ar        1 ACT      -0.0004
     10 CD1       -10.9020   12.3311   -2.6508 C.ar        1 ACT      -0.0239
     11 CD2       -10.6213   10.3116   -1.3424 C.ar        1 ACT      -0.0239
     12 CE1        -9.7154   12.0539   -3.3477 C.ar        1 ACT       0.0115
     13 CE2        -9.4290   10.0316   -2.0380 C.ar        1 ACT       0.0115
     14 CZ         -8.9590   10.9094   -3.0342 C.ar        1 ACT       0.1728
     15 OH         -7.8678   10.6008   -3.8062 O.3         1 ACT      -0.2040
     16 P          -6.5253   11.1994   -3.2922 P.3         1 ACT       0.1348
     17 O1P        -6.0219   10.4736   -2.1492 O.co2       1 ACT      -0.6653
     18 O2P        -5.5581   11.0288   -4.3462 O.co2       1 ACT      -0.6653
     19 O3P        -6.5920   12.6111   -2.9993 O.co2       1 ACT      -0.6653
     20 CB        -17.8133   13.2908    0.3759 C.3         1 ACT      -0.0184
     21 CG        -17.9966   11.7743    0.2910 C.3         1 ACT      -0.0184
     22 CA        -16.7066   12.3593    0.9361 C.3         1 ACT       0.1329
     23 C         -16.6679   12.1661    2.3709 C.2         1 ACT       0.2267
     24 O         -16.5473   11.0180    2.7831 O.2         1 ACT      -0.3419
     25 N         -15.4179   12.5271    0.2931 N.am        1 ACT      -0.2738
     26 N         -16.8618   13.1892    3.1977 N.am        1 ACT      -0.2608
     27 CA        -17.0850   13.1516    4.6175 C.3         1 ACT       0.1474
     28 C         -18.5102   13.3752    4.8664 C.2         1 ACT       0.2017
     29 O         -19.0992   12.7605    5.7444 O.2         1 ACT      -0.3945
     30 CB        -16.1696   14.2144    5.3026 C.3         1 ACT       0.0774
     31 CG        -16.2535   14.2579    6.7561 C.2         1 ACT       0.1781
     32 OD1       -16.5924   13.2756    7.4004 O.2         1 ACT      -0.3970
     33 ND2       -16.0299   15.3661    7.4311 N.am        1 ACT      -0.3007
     34 N         -19.2080   14.2561    4.1810 N.am        1 ACT      -0.2988
     35 H1        -13.1177   16.6063   -1.3698 H           1 ACT       0.0467
     36 H2        -11.3826   16.4380   -1.0843 H           1 ACT       0.0467
     37 H3        -12.5006   16.6159    0.2875 H           1 ACT       0.0467
     38 H4        -14.0151   14.7004   -1.8080 H           1 ACT       0.1885
     39 H5        -13.7178   12.5604   -2.5508 H           1 ACT       0.0840
     40 H6        -13.1902   10.6818   -0.9471 H           1 ACT       0.0584
     41 H7        -12.4869   11.8605    0.1351 H           1 ACT       0.0584
     42 H8        -11.4039   13.1764   -2.9169 H           1 ACT       0.0703
     43 H9        -10.9347    9.6488   -0.6230 H           1 ACT       0.0703
     44 H10        -9.4076   12.6874   -4.0953 H           1 ACT       0.0736
     45 H11        -8.9040    9.1754   -1.8242 H           1 ACT       0.0736
     46 H12       -18.4819   13.7713    1.0879 H           1 ACT       0.0276
     47 H13       -17.6225   13.7774   -0.5870 H           1 ACT       0.0276
     48 H14       -17.9698   11.3568   -0.7078 H           1 ACT       0.0276
     49 H15       -18.7806   11.3958    0.9525 H           1 ACT       0.0276
     50 H16       -14.6883   12.7456    0.8941 H           1 ACT       0.1839
     51 H17       -16.9433   14.0582    2.7757 H           1 ACT       0.1891
     52 H18       -16.8102   12.1755    5.0369 H           1 ACT       0.0828
     53 H19       -16.3950   15.2008    4.8900 H           1 ACT       0.0551
     54 H20       -15.1331   13.9905    5.0420 H           1 ACT       0.0551
     55 H21       -16.1256   15.3781    8.4019 H           1 ACT       0.1814
     56 H22       -15.7797   16.1829    6.9652 H           1 ACT       0.1814
     57 H23       -20.1556   14.3761    4.3652 H           1 ACT       0.1815
     58 H24       -18.7880   14.7751    3.4765 H           1 ACT       0.1815
@<TRIPOS>BOND
     1     1     2   2
     2     1     3   1
     3     4     1  am
     4     5     4   1
     5     6     5   1
     6     5     8   1
     7     6     7   2
     8    25     6  am
     9     8     9   1
    10     9    10  ar
    11     9    11  ar
    12    10    12  ar
    13    11    13  ar
    14    12    14  ar
    15    13    14  ar
    16    14    15   1
    17    15    16   1
    18    16    17  ar
    19    16    18  ar
    20    16    19  ar
    21    21    20   1
    22    22    20   1
    23    22    21   1
    24    22    23   1
    25    22    25   1
    26    23    24   2
    27    23    26  am
    28    26    27   1
    29    27    28   1
    30    27    30   1
    31    28    29   2
    32    28    34  am
    33    30    31   1
    34    31    32   2
    35    31    33  am
    36     3    35   1
    37     3    36   1
    38     3    37   1
    39     4    38   1
    40     5    39   1
    41     8    40   1
    42     8    41   1
    43    10    42   1
    44    11    43   1
    45    12    44   1
    46    13    45   1
    47    20    46   1
    48    20    47   1
    49    21    48   1
    50    21    49   1
    51    25    50   1
    52    26    51   1
    53    27    52   1
    54    30    53   1
    55    30    54   1
    56    33    55   1
    57    33    56   1
    58    34    57   1
    59    34    58   1
@<TRIPOS>SUBSTRUCTURE
     1  ACT      1

