@<TRIPOS>MOLECULE
3ov1_ligand_062
    58    59
SMALL
GAST_HUCK
****
This file was generated by PARSER (from files_GN.cpp)

@<TRIPOS>ATOM
      1 C         -11.0854   12.3887    0.7266 C.2         1 ACT       0.1753
      2 O         -10.2735   13.2932    0.5712 O.2         1 ACT      -0.3972
      3 CH3       -11.1270   11.3417   -0.2662 C.3         1 ACT       0.0258
      4 N         -11.9293   12.3786    1.7542 N.am        1 ACT      -0.2628
      5 CA        -12.0292   13.3821    2.7839 C.3         1 ACT       0.1465
      6 C         -11.0451   13.1977    3.8513 C.2         1 ACT       0.2045
      7 O         -10.6695   14.1996    4.4530 O.2         1 ACT      -0.3944
      8 CB        -13.4696   13.4286    3.3880 C.3         1 ACT       0.0400
      9 CG        -14.5877   13.4503    2.3991 C.ar        1 ACT      -0.0004
     10 CD1       -15.5823   12.4446    2.4259 C.ar        1 ACT      -0.0239
     11 CD2       -14.7014   14.4820    1.4369 C.ar        1 ACT      -0.0239
     12 CE1       -16.6429   12.4498    1.5019 C.ar        1 ACT       0.0115
     13 CE2       -15.7366   14.4651    0.4830 C.ar        1 ACT       0.0115
     14 CZ        -16.6998   13.4398    0.4964 C.ar        1 ACT       0.1728
     15 OH        -17.7230   13.4511   -0.4140 O.3         1 ACT      -0.2040
     16 P         -17.6184   12.3278   -1.4837 P.3         1 ACT       0.1348
     17 O1P       -17.3837   11.0430   -0.8736 O.co2       1 ACT      -0.6653
     18 O2P       -18.9020   12.2079   -2.1430 O.co2       1 ACT      -0.6653
     19 O3P       -16.6034   12.5325   -2.4955 O.co2       1 ACT      -0.6653
     20 CB        -10.2261   11.1063    6.5557 C.3         1 ACT      -0.0184
     21 CG         -9.5054   10.2038    5.5493 C.3         1 ACT      -0.0184
     22 CA         -9.6766   11.7070    5.2456 C.3         1 ACT       0.1329
     23 C          -8.4673   12.5041    5.2979 C.2         1 ACT       0.2267
     24 O          -7.5721   12.2677    4.4976 O.2         1 ACT      -0.3419
     25 N         -10.6355   11.9920    4.2229 N.am        1 ACT      -0.2738
     26 N          -8.4145   13.5288    6.1316 N.am        1 ACT      -0.2608
     27 CA         -7.3501   14.4838    6.2948 C.3         1 ACT       0.1474
     28 C          -7.8135   15.5213    7.2096 C.2         1 ACT       0.2017
     29 O          -7.3415   15.6143    8.3350 O.2         1 ACT      -0.3945
     30 CB         -6.7859   15.0963    4.9678 C.3         1 ACT       0.0774
     31 CG         -7.7660   15.4682    3.9593 C.2         1 ACT       0.1781
     32 OD1        -8.3202   14.6112    3.2878 O.2         1 ACT      -0.3970
     33 ND2        -8.0552   16.7253    3.6992 N.am        1 ACT      -0.3007
     34 N          -8.7564   16.3781    6.8801 N.am        1 ACT      -0.2988
     35 H1        -11.8325   10.5545    0.0045 H           1 ACT       0.0467
     36 H2        -10.1396   10.8906   -0.3766 H           1 ACT       0.0467
     37 H3        -11.4299   11.7630   -1.2268 H           1 ACT       0.0467
     38 H4        -12.5545   11.6383    1.7979 H           1 ACT       0.1885
     39 H5        -11.8389   14.3607    2.3249 H           1 ACT       0.0840
     40 H6        -13.5655   14.3281    3.9994 H           1 ACT       0.0584
     41 H7        -13.5869   12.5756    4.0651 H           1 ACT       0.0584
     42 H8        -15.5507   11.7046    3.1336 H           1 ACT       0.0703
     43 H9        -14.0215   15.2426    1.4104 H           1 ACT       0.0703
     44 H10       -17.3612   11.7197    1.5532 H           1 ACT       0.0736
     45 H11       -15.7890   15.2027   -0.2194 H           1 ACT       0.0736
     46 H12        -9.6697   11.3092    7.4721 H           1 ACT       0.0276
     47 H13       -11.3060   10.9575    6.6143 H           1 ACT       0.0276
     48 H14       -10.1484    9.5156    5.0030 H           1 ACT       0.0276
     49 H15        -8.5196    9.8593    5.8628 H           1 ACT       0.0276
     50 H16       -11.0528   11.2273    3.7948 H           1 ACT       0.1839
     51 H17        -9.1870   13.6360    6.7124 H           1 ACT       0.1891
     52 H18        -6.5164   13.9479    6.7684 H           1 ACT       0.0828
     53 H19        -6.0944   14.3865    4.5032 H           1 ACT       0.0551
     54 H20        -6.1833   15.9729    5.2285 H           1 ACT       0.0551
     55 H21        -8.6963   16.9417    3.0030 H           1 ACT       0.1814
     56 H22        -7.6230   17.4389    4.1965 H           1 ACT       0.1814
     57 H23        -9.0460   17.0532    7.5142 H           1 ACT       0.1815
     58 H24        -9.1744   16.3323    6.0064 H           1 ACT       0.1815
@<TRIPOS>BOND
     1     1     2   2
     2     1     3   1
     3     4     1  am
     4     5     4   1
     5     6     5   1
     6     5     8   1
     7     6     7   2
     8    25     6  am
     9     8     9   1
    10     9    10  ar
    11     9    11  ar
    12    10    12  ar
    13    11    13  ar
    14    12    14  ar
    15    13    14  ar
    16    14    15   1
    17    15    16   1
    18    16    17  ar
    19    16    18  ar
    20    16    19  ar
    21    21    20   1
    22    22    20   1
    23    22    21   1
    24    22    23   1
    25    22    25   1
    26    23    24   2
    27    23    26  am
    28    26    27   1
    29    27    28   1
    30    27    30   1
    31    28    29   2
    32    28    34  am
    33    30    31   1
    34    31    32   2
    35    31    33  am
    36     3    35   1
    37     3    36   1
    38     3    37   1
    39     4    38   1
    40     5    39   1
    41     8    40   1
    42     8    41   1
    43    10    42   1
    44    11    43   1
    45    12    44   1
    46    13    45   1
    47    20    46   1
    48    20    47   1
    49    21    48   1
    50    21    49   1
    51    25    50   1
    52    26    51   1
    53    27    52   1
    54    30    53   1
    55    30    54   1
    56    33    55   1
    57    33    56   1
    58    34    57   1
    59    34    58   1
@<TRIPOS>SUBSTRUCTURE
     1  ACT      1

