@<TRIPOS>MOLECULE
3ov1_ligand_055
    58    59
SMALL
GAST_HUCK
****
This file was generated by PARSER (from files_GN.cpp)

@<TRIPOS>ATOM
      1 C         -12.3550   11.5134   -0.9833 C.2         1 ACT       0.1753
      2 O         -12.7739   11.1251   -2.0751 O.2         1 ACT      -0.3972
      3 CH3       -11.3542   10.7253   -0.3103 C.3         1 ACT       0.0258
      4 N         -12.7181   12.6890   -0.4735 N.am        1 ACT      -0.2628
      5 CA        -13.5222   13.7164   -1.0816 C.3         1 ACT       0.1465
      6 C         -14.8294   13.2313   -1.5247 C.2         1 ACT       0.2045
      7 O         -15.0353   13.0543   -2.7153 O.2         1 ACT      -0.3944
      8 CB        -12.7216   14.6057   -2.1001 C.3         1 ACT       0.0400
      9 CG        -11.7042   13.9027   -2.9324 C.ar        1 ACT      -0.0004
     10 CD1       -12.0724   13.1307   -4.0605 C.ar        1 ACT      -0.0239
     11 CD2       -10.3316   13.9846   -2.5944 C.ar        1 ACT      -0.0239
     12 CE1       -11.1040   12.4208   -4.7971 C.ar        1 ACT       0.0115
     13 CE2        -9.3657   13.2825   -3.3353 C.ar        1 ACT       0.0115
     14 CZ         -9.7477   12.4544   -4.4097 C.ar        1 ACT       0.1728
     15 OH         -8.7910   11.8065   -5.1389 O.3         1 ACT      -0.2040
     16 P          -8.3500   10.4302   -4.5589 P.3         1 ACT       0.1348
     17 O1P        -9.2850    9.3697   -4.8677 O.co2       1 ACT      -0.6653
     18 O2P        -7.0916   10.0909   -5.1883 O.co2       1 ACT      -0.6653
     19 O3P        -8.0790   10.4493   -3.1412 O.co2       1 ACT      -0.6653
     20 CB        -17.9561   12.6418   -2.0810 C.3         1 ACT      -0.0184
     21 CG        -17.3747   11.2965   -1.6237 C.3         1 ACT      -0.0184
     22 CA        -17.1455   12.5628   -0.7612 C.3         1 ACT       0.1329
     23 C         -17.8922   12.5643    0.4823 C.2         1 ACT       0.2267
     24 O         -17.5801   11.7476    1.3406 O.2         1 ACT      -0.3419
     25 N         -15.7619   12.9470   -0.6133 N.am        1 ACT      -0.2738
     26 N         -18.8077   13.5003    0.6983 N.am        1 ACT      -0.2608
     27 CA        -19.5360   13.8041    1.9055 C.3         1 ACT       0.1474
     28 C         -18.6618   14.3873    2.9181 C.2         1 ACT       0.2017
     29 O         -17.7134   13.7614    3.3764 O.2         1 ACT      -0.3945
     30 CB        -20.3921   12.6341    2.4952 C.3         1 ACT       0.0774
     31 CG        -21.6692   12.3472    1.8560 C.2         1 ACT       0.1781
     32 OD1       -22.0100   12.8700    0.8058 O.2         1 ACT      -0.3970
     33 ND2       -22.5372   11.5599    2.4565 N.am        1 ACT      -0.3007
     34 N         -18.9210   15.5643    3.4487 N.am        1 ACT      -0.2988
     35 H1        -11.1511   11.1055    0.6944 H           1 ACT       0.0467
     36 H2        -10.4278   10.7593   -0.8896 H           1 ACT       0.0467
     37 H3        -11.6827    9.6886   -0.2328 H           1 ACT       0.0467
     38 H4        -12.3203   12.9206    0.3828 H           1 ACT       0.1885
     39 H5        -13.7523   14.4013   -0.2565 H           1 ACT       0.0840
     40 H6        -12.2171   15.3851   -1.5212 H           1 ACT       0.0584
     41 H7        -13.4090   15.1430   -2.7580 H           1 ACT       0.0584
     42 H8        -13.0456   13.1019   -4.3721 H           1 ACT       0.0703
     43 H9        -10.0256   14.5620   -1.8063 H           1 ACT       0.0703
     44 H10       -11.3857   11.8851   -5.6159 H           1 ACT       0.0736
     45 H11        -8.3771   13.3694   -3.0790 H           1 ACT       0.0736
     46 H12       -19.0409   12.7162   -1.9961 H           1 ACT       0.0276
     47 H13       -17.4799   13.0745   -2.9609 H           1 ACT       0.0276
     48 H14       -16.5472   10.9410   -2.2415 H           1 ACT       0.0276
     49 H15       -18.1329   10.5768   -1.3023 H           1 ACT       0.0276
     50 H16       -15.4750   13.0641    0.3097 H           1 ACT       0.1839
     51 H17       -18.9931   14.0921   -0.0550 H           1 ACT       0.1891
     52 H18       -20.2447   14.5875    1.6123 H           1 ACT       0.0828
     53 H19       -20.6177   12.8608    3.5463 H           1 ACT       0.0551
     54 H20       -19.7908   11.7191    2.4801 H           1 ACT       0.0551
     55 H21       -23.4218   11.4261    2.0687 H           1 ACT       0.1814
     56 H22       -22.3215   11.1561    3.3155 H           1 ACT       0.1814
     57 H23       -18.3603   15.9187    4.1608 H           1 ACT       0.1815
     58 H24       -19.6962   16.0741    3.1548 H           1 ACT       0.1815
@<TRIPOS>BOND
     1     1     2   2
     2     1     3   1
     3     4     1  am
     4     5     4   1
     5     6     5   1
     6     5     8   1
     7     6     7   2
     8    25     6  am
     9     8     9   1
    10     9    10  ar
    11     9    11  ar
    12    10    12  ar
    13    11    13  ar
    14    12    14  ar
    15    13    14  ar
    16    14    15   1
    17    15    16   1
    18    16    17  ar
    19    16    18  ar
    20    16    19  ar
    21    21    20   1
    22    22    20   1
    23    22    21   1
    24    22    23   1
    25    22    25   1
    26    23    24   2
    27    23    26  am
    28    26    27   1
    29    27    28   1
    30    27    30   1
    31    28    29   2
    32    28    34  am
    33    30    31   1
    34    31    32   2
    35    31    33  am
    36     3    35   1
    37     3    36   1
    38     3    37   1
    39     4    38   1
    40     5    39   1
    41     8    40   1
    42     8    41   1
    43    10    42   1
    44    11    43   1
    45    12    44   1
    46    13    45   1
    47    20    46   1
    48    20    47   1
    49    21    48   1
    50    21    49   1
    51    25    50   1
    52    26    51   1
    53    27    52   1
    54    30    53   1
    55    30    54   1
    56    33    55   1
    57    33    56   1
    58    34    57   1
    59    34    58   1
@<TRIPOS>SUBSTRUCTURE
     1  ACT      1

