@<TRIPOS>MOLECULE
3ov1_ligand_048
    58    59
SMALL
GAST_HUCK
****
This file was generated by PARSER (from files_GN.cpp)

@<TRIPOS>ATOM
      1 C         -16.0905   14.4622    7.0567 C.2         1 ACT       0.1753
      2 O         -16.4332   13.3511    7.4442 O.2         1 ACT      -0.3972
      3 CH3       -15.9701   15.5113    8.0407 C.3         1 ACT       0.0258
      4 N         -15.8566   14.7134    5.7791 N.am        1 ACT      -0.2628
      5 CA        -15.7221   13.7537    4.7097 C.3         1 ACT       0.1465
      6 C         -14.4966   13.9725    3.9357 C.2         1 ACT       0.2045
      7 O         -13.9405   15.0663    3.9255 O.2         1 ACT      -0.3944
      8 CB        -17.0082   13.7555    3.8284 C.3         1 ACT       0.0400
      9 CG        -17.2307   14.9970    3.0304 C.ar        1 ACT      -0.0004
     10 CD1       -16.7474   15.0998    1.7050 C.ar        1 ACT      -0.0239
     11 CD2       -17.9538   16.0880    3.5712 C.ar        1 ACT      -0.0239
     12 CE1       -16.9634   16.2631    0.9476 C.ar        1 ACT       0.0115
     13 CE2       -18.1757   17.2498    2.8110 C.ar        1 ACT       0.0115
     14 CZ        -17.6570   17.3572    1.5032 C.ar        1 ACT       0.1728
     15 OH        -17.9026   18.4718    0.7469 O.3         1 ACT      -0.2040
     16 P         -16.8110   19.5750    0.8835 P.3         1 ACT       0.1348
     17 O1P       -15.5039   19.1210    0.4820 O.co2       1 ACT      -0.6653
     18 O2P       -17.1700   20.6553    0.0010 O.co2       1 ACT      -0.6653
     19 O3P       -16.7507   20.1203    2.2154 O.co2       1 ACT      -0.6653
     20 CB        -13.1103   12.8843    0.9288 C.3         1 ACT      -0.0184
     21 CG        -12.6358   14.2331    1.4823 C.3         1 ACT      -0.0184
     22 CA        -12.7859   13.0274    2.4355 C.3         1 ACT       0.1329
     23 C         -11.5522   12.4461    2.9516 C.2         1 ACT       0.2267
     24 O         -10.7819   11.8777    2.1812 O.2         1 ACT      -0.3419
     25 N         -13.9712   12.9705    3.2422 N.am        1 ACT      -0.2738
     26 N         -11.2524   12.5361    4.2409 N.am        1 ACT      -0.2608
     27 CA        -10.0073   12.1774    4.8706 C.3         1 ACT       0.1474
     28 C         -10.2167   10.9699    5.6603 C.2         1 ACT       0.2017
     29 O         -11.0044   10.9655    6.6007 O.2         1 ACT      -0.3945
     30 CB         -9.4834   13.3967    5.7034 C.3         1 ACT       0.0774
     31 CG         -8.1014   13.7647    5.4428 C.2         1 ACT       0.1781
     32 OD1        -7.3444   14.0882    6.3519 O.2         1 ACT      -0.3970
     33 ND2        -7.6561   13.8288    4.2085 N.am        1 ACT      -0.3007
     34 N          -9.6298    9.8282    5.3793 N.am        1 ACT      -0.2988
     35 H1        -15.7492   16.4752    7.5782 H           1 ACT       0.0467
     36 H2        -15.1546   15.2615    8.7201 H           1 ACT       0.0467
     37 H3        -16.8935   15.6036    8.6156 H           1 ACT       0.0467
     38 H4        -15.6917   15.6419    5.5460 H           1 ACT       0.1885
     39 H5        -15.6345   12.7462    5.1322 H           1 ACT       0.0840
     40 H6        -17.8794   13.5877    4.4704 H           1 ACT       0.0584
     41 H7        -16.9675   12.8877    3.1600 H           1 ACT       0.0584
     42 H8        -16.2367   14.3225    1.2817 H           1 ACT       0.0703
     43 H9        -18.3325   16.0356    4.5189 H           1 ACT       0.0703
     44 H10       -16.6122   16.3155   -0.0114 H           1 ACT       0.0736
     45 H11       -18.7160   18.0205    3.2100 H           1 ACT       0.0736
     46 H12       -12.3876   12.3760    0.2870 H           1 ACT       0.0276
     47 H13       -14.1600   12.8701    0.6246 H           1 ACT       0.0276
     48 H14       -13.4033   15.0088    1.5331 H           1 ACT       0.0276
     49 H15       -11.6273   14.5096    1.1582 H           1 ACT       0.0276
     50 H16       -14.4410   12.1202    3.2648 H           1 ACT       0.1839
     51 H17       -11.9263   12.9251    4.8198 H           1 ACT       0.1891
     52 H18        -9.2622   11.9556    4.0921 H           1 ACT       0.0828
     53 H19        -9.6233   13.2074    6.7713 H           1 ACT       0.0551
     54 H20       -10.0834   14.2834    5.4792 H           1 ACT       0.0551
     55 H21        -6.7550   14.1361    4.0229 H           1 ACT       0.1814
     56 H22        -8.2573   13.6355    3.4692 H           1 ACT       0.1814
     57 H23        -9.8401    9.0380    5.9014 H           1 ACT       0.1815
     58 H24        -9.0057    9.7545    4.6365 H           1 ACT       0.1815
@<TRIPOS>BOND
     1     1     2   2
     2     1     3   1
     3     4     1  am
     4     5     4   1
     5     6     5   1
     6     5     8   1
     7     6     7   2
     8    25     6  am
     9     8     9   1
    10     9    10  ar
    11     9    11  ar
    12    10    12  ar
    13    11    13  ar
    14    12    14  ar
    15    13    14  ar
    16    14    15   1
    17    15    16   1
    18    16    17  ar
    19    16    18  ar
    20    16    19  ar
    21    21    20   1
    22    22    20   1
    23    22    21   1
    24    22    23   1
    25    22    25   1
    26    23    24   2
    27    23    26  am
    28    26    27   1
    29    27    28   1
    30    27    30   1
    31    28    29   2
    32    28    34  am
    33    30    31   1
    34    31    32   2
    35    31    33  am
    36     3    35   1
    37     3    36   1
    38     3    37   1
    39     4    38   1
    40     5    39   1
    41     8    40   1
    42     8    41   1
    43    10    42   1
    44    11    43   1
    45    12    44   1
    46    13    45   1
    47    20    46   1
    48    20    47   1
    49    21    48   1
    50    21    49   1
    51    25    50   1
    52    26    51   1
    53    27    52   1
    54    30    53   1
    55    30    54   1
    56    33    55   1
    57    33    56   1
    58    34    57   1
    59    34    58   1
@<TRIPOS>SUBSTRUCTURE
     1  ACT      1

