@<TRIPOS>MOLECULE
3ov1_ligand_004
    58    59
SMALL
GAST_HUCK
****
This file was generated by PARSER (from files_GN.cpp)

@<TRIPOS>ATOM
      1 C         -13.5700   13.5092   -2.8122 C.2         1 ACT       0.1753
      2 O         -13.7826   12.3098   -2.9209 O.2         1 ACT      -0.3972
      3 CH3       -14.5968   14.4282   -3.2435 C.3         1 ACT       0.0258
      4 N         -12.4045   13.9761   -2.3903 N.am        1 ACT      -0.2628
      5 CA        -11.2482   13.2253   -1.9813 C.3         1 ACT       0.1465
      6 C         -10.9214   13.5626   -0.6026 C.2         1 ACT       0.2045
      7 O         -10.5818   12.6443    0.1341 O.2         1 ACT      -0.3944
      8 CB        -10.0486   13.4916   -2.9479 C.3         1 ACT       0.0400
      9 CG        -10.0774   12.6061   -4.1507 C.ar        1 ACT      -0.0004
     10 CD1       -11.0780   12.7559   -5.1387 C.ar        1 ACT      -0.0239
     11 CD2        -9.1269   11.5709   -4.3123 C.ar        1 ACT      -0.0239
     12 CE1       -11.1577   11.8671   -6.2260 C.ar        1 ACT       0.0115
     13 CE2        -9.1945   10.6933   -5.4095 C.ar        1 ACT       0.0115
     14 CZ        -10.2347   10.8116   -6.3580 C.ar        1 ACT       0.1728
     15 OH        -10.3499    9.9861   -7.4497 O.3         1 ACT      -0.2040
     16 P         -10.7596    8.5125   -7.1407 P.3         1 ACT       0.1348
     17 O1P       -11.3483    7.9436   -8.3273 O.co2       1 ACT      -0.6653
     18 O2P        -9.5871    7.7249   -6.8437 O.co2       1 ACT      -0.6653
     19 O3P       -11.7051    8.3665   -6.0607 O.co2       1 ACT      -0.6653
     20 CB         -9.1538   15.7661    1.3549 C.3         1 ACT      -0.0184
     21 CG        -10.2925   16.7829    1.2357 C.3         1 ACT      -0.0184
     22 CA        -10.5989   15.2690    1.1521 C.3         1 ACT       0.1329
     23 C         -11.2973   14.7006    2.2940 C.2         1 ACT       0.2267
     24 O         -12.3539   15.2128    2.6369 O.2         1 ACT      -0.3419
     25 N         -10.9272   14.8228   -0.1720 N.am        1 ACT      -0.2738
     26 N         -10.8325   13.5705    2.8185 N.am        1 ACT      -0.2608
     27 CA        -11.3761   12.6844    3.8193 C.3         1 ACT       0.1474
     28 C         -12.7813   12.8804    4.1710 C.2         1 ACT       0.2017
     29 O         -13.1175   13.6430    5.0666 O.2         1 ACT      -0.3945
     30 CB        -10.4302   12.6781    5.0634 C.3         1 ACT       0.0774
     31 CG         -9.1948   11.9516    4.8294 C.2         1 ACT       0.1781
     32 OD1        -8.1289   12.5347    4.6953 O.2         1 ACT      -0.3970
     33 ND2        -9.2055   10.6386    4.7442 N.am        1 ACT      -0.3007
     34 N         -13.7409   12.2822    3.4945 N.am        1 ACT      -0.2988
     35 H1        -14.2915   15.4695   -3.1096 H           1 ACT       0.0467
     36 H2        -15.5083   14.2611   -2.6661 H           1 ACT       0.0467
     37 H3        -14.8133   14.2670   -4.3025 H           1 ACT       0.0467
     38 H4        -12.3087   14.9410   -2.3834 H           1 ACT       0.1885
     39 H5        -11.4579   12.1490   -1.9998 H           1 ACT       0.0840
     40 H6         -9.1086   13.3338   -2.4063 H           1 ACT       0.0584
     41 H7        -10.0466   14.5375   -3.2670 H           1 ACT       0.0584
     42 H8        -11.7606   13.5124   -5.0751 H           1 ACT       0.0703
     43 H9         -8.3827   11.4396   -3.6232 H           1 ACT       0.0703
     44 H10       -11.8962   11.9863   -6.9228 H           1 ACT       0.0736
     45 H11        -8.4985    9.9495   -5.4988 H           1 ACT       0.0736
     46 H12        -8.7264   15.6770    2.3555 H           1 ACT       0.0276
     47 H13        -8.4914   15.7186    0.4881 H           1 ACT       0.0276
     48 H14       -10.2958   17.3501    0.3007 H           1 ACT       0.0276
     49 H15       -10.5284   17.3058    2.1663 H           1 ACT       0.0276
     50 H16       -11.1706   15.5133   -0.8129 H           1 ACT       0.1839
     51 H17        -9.9896   13.2716    2.4419 H           1 ACT       0.1891
     52 H18       -11.3300   11.6877    3.3641 H           1 ACT       0.0828
     53 H19       -10.9263   12.2145    5.9190 H           1 ACT       0.0551
     54 H20       -10.2134   13.7126    5.3450 H           1 ACT       0.0551
     55 H21        -8.3906   10.1507    4.5493 H           1 ACT       0.1814
     56 H22       -10.0387   10.1520    4.8545 H           1 ACT       0.1814
     57 H23       -14.6703   12.4203    3.7446 H           1 ACT       0.1815
     58 H24       -13.5280   11.6822    2.7568 H           1 ACT       0.1815
@<TRIPOS>BOND
     1     1     2   2
     2     1     3   1
     3     4     1  am
     4     5     4   1
     5     6     5   1
     6     5     8   1
     7     6     7   2
     8    25     6  am
     9     8     9   1
    10     9    10  ar
    11     9    11  ar
    12    10    12  ar
    13    11    13  ar
    14    12    14  ar
    15    13    14  ar
    16    14    15   1
    17    15    16   1
    18    16    17  ar
    19    16    18  ar
    20    16    19  ar
    21    21    20   1
    22    22    20   1
    23    22    21   1
    24    22    23   1
    25    22    25   1
    26    23    24   2
    27    23    26  am
    28    26    27   1
    29    27    28   1
    30    27    30   1
    31    28    29   2
    32    28    34  am
    33    30    31   1
    34    31    32   2
    35    31    33  am
    36     3    35   1
    37     3    36   1
    38     3    37   1
    39     4    38   1
    40     5    39   1
    41     8    40   1
    42     8    41   1
    43    10    42   1
    44    11    43   1
    45    12    44   1
    46    13    45   1
    47    20    46   1
    48    20    47   1
    49    21    48   1
    50    21    49   1
    51    25    50   1
    52    26    51   1
    53    27    52   1
    54    30    53   1
    55    30    54   1
    56    33    55   1
    57    33    56   1
    58    34    57   1
    59    34    58   1
@<TRIPOS>SUBSTRUCTURE
     1  ACT      1

