@<TRIPOS>MOLECULE
3ov1_ligand_094
    58    59
SMALL
GAST_HUCK
****
This file was generated by PARSER (from files_GN.cpp)

@<TRIPOS>ATOM
      1 C         -16.4915   14.5268    7.0982 C.2         1 ACT       0.1753
      2 O         -16.6939   13.3903    7.5002 O.2         1 ACT      -0.3972
      3 CH3       -16.0479   15.5132    8.0522 C.3         1 ACT       0.0258
      4 N         -16.6637   14.8637    5.8212 N.am        1 ACT      -0.2628
      5 CA        -17.1368   14.0535    4.7248 C.3         1 ACT       0.1465
      6 C         -18.6049   13.9455    4.7787 C.2         1 ACT       0.2045
      7 O         -19.1180   13.1297    5.5342 O.2         1 ACT      -0.3944
      8 CB        -16.4480   12.6575    4.5570 C.3         1 ACT       0.0400
      9 CG        -15.0154   12.7438    4.1647 C.ar        1 ACT      -0.0004
     10 CD1       -14.6178   12.4771    2.8329 C.ar        1 ACT      -0.0239
     11 CD2       -14.0225   13.0688    5.1155 C.ar        1 ACT      -0.0239
     12 CE1       -13.2636   12.5349    2.4636 C.ar        1 ACT       0.0115
     13 CE2       -12.6680   13.1305    4.7433 C.ar        1 ACT       0.0115
     14 CZ        -12.2802   12.8836    3.4144 C.ar        1 ACT       0.1728
     15 OH        -10.9506   12.9084    3.1074 O.3         1 ACT      -0.2040
     16 P         -10.4610   14.2286    2.4431 P.3         1 ACT       0.1348
     17 O1P        -9.1963   14.5586    3.0462 O.co2       1 ACT      -0.6653
     18 O2P       -10.2012   14.0030    1.0408 O.co2       1 ACT      -0.6653
     19 O3P       -11.3243   15.3746    2.5972 O.co2       1 ACT      -0.6653
     20 CB        -21.6800   13.6867    4.1031 C.3         1 ACT      -0.0184
     21 CG        -21.7410   14.7814    5.1791 C.3         1 ACT      -0.0184
     22 CA        -20.7901   14.9437    3.9734 C.3         1 ACT       0.1329
     23 C         -21.2266   15.9490    3.0234 C.2         1 ACT       0.2267
     24 O         -21.5695   15.5885    1.9052 O.2         1 ACT      -0.3419
     25 N         -19.3538   14.7599    4.0435 N.am        1 ACT      -0.2738
     26 N         -21.2020   17.2309    3.3826 N.am        1 ACT      -0.2608
     27 CA        -21.6443   18.3907    2.6514 C.3         1 ACT       0.1474
     28 C         -23.0894   18.5685    2.7774 C.2         1 ACT       0.2017
     29 O         -23.5533   19.5592    3.3251 O.2         1 ACT      -0.3945
     30 CB        -21.1398   18.4616    1.1734 C.3         1 ACT       0.0774
     31 CG        -21.2887   19.7742    0.5665 C.2         1 ACT       0.1781
     32 OD1       -20.4099   20.6186    0.6867 O.2         1 ACT      -0.3970
     33 ND2       -22.3727   20.1036   -0.1018 N.am        1 ACT      -0.3007
     34 N         -23.9519   17.6952    2.3032 N.am        1 ACT      -0.2988
     35 H1        -15.9996   16.5115    7.6136 H           1 ACT       0.0467
     36 H2        -15.0538   15.2475    8.4185 H           1 ACT       0.0467
     37 H3        -16.7382   15.5449    8.8999 H           1 ACT       0.0467
     38 H4        -16.4629   15.7856    5.6060 H           1 ACT       0.1885
     39 H5        -16.8644   14.6248    3.8321 H           1 ACT       0.0840
     40 H6        -16.9980   12.0977    3.7890 H           1 ACT       0.0584
     41 H7        -16.5312   12.0680    5.4715 H           1 ACT       0.0584
     42 H8        -15.3167   12.2399    2.1227 H           1 ACT       0.0703
     43 H9        -14.2715   13.2462    6.0905 H           1 ACT       0.0703
     44 H10       -12.9959   12.3289    1.4980 H           1 ACT       0.0736
     45 H11       -11.9596   13.3558    5.4476 H           1 ACT       0.0736
     46 H12       -22.5748   13.6263    3.4675 H           1 ACT       0.0276
     47 H13       -21.1747   12.7610    4.3772 H           1 ACT       0.0276
     48 H14       -21.3067   14.5103    6.1454 H           1 ACT       0.0276
     49 H15       -22.6842   15.3463    5.1702 H           1 ACT       0.0276
     50 H16       -18.8598   15.3640    3.4692 H           1 ACT       0.1839
     51 H17       -20.8505   17.4099    4.2713 H           1 ACT       0.1891
     52 H18       -21.1647   19.2250    3.1749 H           1 ACT       0.0828
     53 H19       -21.6680   17.7283    0.5592 H           1 ACT       0.0551
     54 H20       -20.0810   18.1870    1.1503 H           1 ACT       0.0551
     55 H21       -22.4540   20.9896   -0.4926 H           1 ACT       0.1814
     56 H22       -23.0963   19.4651   -0.2032 H           1 ACT       0.1814
     57 H23       -24.9054   17.8484    2.4070 H           1 ACT       0.1815
     58 H24       -23.6404   16.8931    1.8533 H           1 ACT       0.1815
@<TRIPOS>BOND
     1     1     2   2
     2     1     3   1
     3     4     1  am
     4     5     4   1
     5     6     5   1
     6     5     8   1
     7     6     7   2
     8    25     6  am
     9     8     9   1
    10     9    10  ar
    11     9    11  ar
    12    10    12  ar
    13    11    13  ar
    14    12    14  ar
    15    13    14  ar
    16    14    15   1
    17    15    16   1
    18    16    17  ar
    19    16    18  ar
    20    16    19  ar
    21    21    20   1
    22    22    20   1
    23    22    21   1
    24    22    23   1
    25    22    25   1
    26    23    24   2
    27    23    26  am
    28    26    27   1
    29    27    28   1
    30    27    30   1
    31    28    29   2
    32    28    34  am
    33    30    31   1
    34    31    32   2
    35    31    33  am
    36     3    35   1
    37     3    36   1
    38     3    37   1
    39     4    38   1
    40     5    39   1
    41     8    40   1
    42     8    41   1
    43    10    42   1
    44    11    43   1
    45    12    44   1
    46    13    45   1
    47    20    46   1
    48    20    47   1
    49    21    48   1
    50    21    49   1
    51    25    50   1
    52    26    51   1
    53    27    52   1
    54    30    53   1
    55    30    54   1
    56    33    55   1
    57    33    56   1
    58    34    57   1
    59    34    58   1
@<TRIPOS>SUBSTRUCTURE
     1  ACT      1

