@<TRIPOS>MOLECULE
3ov1_ligand_076
    58    59
SMALL
GAST_HUCK
****
This file was generated by PARSER (from files_GN.cpp)

@<TRIPOS>ATOM
      1 C         -10.8884   16.2761    3.2089 C.2         1 ACT       0.1753
      2 O         -10.7247   15.0778    3.4062 O.2         1 ACT      -0.3972
      3 CH3       -10.7432   16.7618    1.8537 C.3         1 ACT       0.0258
      4 N         -11.1767   17.1193    4.1911 N.am        1 ACT      -0.2628
      5 CA        -11.3208   16.8114    5.5887 C.3         1 ACT       0.1465
      6 C         -12.7418   16.9566    5.8966 C.2         1 ACT       0.2045
      7 O         -13.1839   18.0763    6.1167 O.2         1 ACT      -0.3944
      8 CB        -10.4228   17.7290    6.4745 C.3         1 ACT       0.0400
      9 CG         -8.9694   17.6352    6.1437 C.ar        1 ACT      -0.0004
     10 CD1        -8.4116   18.4668    5.1460 C.ar        1 ACT      -0.0239
     11 CD2        -8.1141   16.7377    6.8264 C.ar        1 ACT      -0.0239
     12 CE1        -7.0455   18.3896    4.8213 C.ar        1 ACT       0.0115
     13 CE2        -6.7427   16.6673    6.5079 C.ar        1 ACT       0.0115
     14 CZ         -6.2056   17.4723    5.4797 C.ar        1 ACT       0.1728
     15 OH         -4.8712   17.4451    5.1819 O.3         1 ACT      -0.2040
     16 P          -4.4834   16.3582    4.1333 P.3         1 ACT       0.1348
     17 O1P        -3.2262   16.7422    3.5417 O.co2       1 ACT      -0.6653
     18 O2P        -4.2826   15.0735    4.7528 O.co2       1 ACT      -0.6653
     19 O3P        -5.4469   16.2215    3.0639 O.co2       1 ACT      -0.6653
     20 CB        -15.6358   16.7214    7.0056 C.3         1 ACT      -0.0184
     21 CG        -15.9752   16.9048    5.5182 C.3         1 ACT      -0.0184
     22 CA        -14.9841   15.7971    5.9516 C.3         1 ACT       0.1329
     23 C         -15.5105   14.4438    5.9293 C.2         1 ACT       0.2267
     24 O         -15.3625   13.7297    6.9126 O.2         1 ACT      -0.3419
     25 N         -13.5510   15.8956    5.8216 N.am        1 ACT      -0.2738
     26 N         -16.1149   14.0189    4.8241 N.am        1 ACT      -0.2608
     27 CA        -16.7457   12.7454    4.5810 C.3         1 ACT       0.1474
     28 C         -16.0074   11.9410    3.6148 C.2         1 ACT       0.2017
     29 O         -16.3497   10.7868    3.4133 O.2         1 ACT      -0.3945
     30 CB        -18.2088   13.0225    4.0924 C.3         1 ACT       0.0774
     31 CG        -19.2295   13.1172    5.1232 C.2         1 ACT       0.1781
     32 OD1       -19.0089   12.8173    6.2883 O.2         1 ACT      -0.3970
     33 ND2       -20.4564   13.4749    4.8146 N.am        1 ACT      -0.3007
     34 N         -14.9575   12.3708    2.9467 N.am        1 ACT      -0.2988
     35 H1        -10.8985   17.8414    1.7923 H           1 ACT       0.0467
     36 H2        -11.4725   16.2680    1.2087 H           1 ACT       0.0467
     37 H3         -9.7387   16.5370    1.4908 H           1 ACT       0.0467
     38 H4        -11.2836   18.0535    3.9433 H           1 ACT       0.1885
     39 H5        -11.0143   15.7770    5.7933 H           1 ACT       0.0840
     40 H6        -10.5787   17.4608    7.5207 H           1 ACT       0.0584
     41 H7        -10.7292   18.7728    6.3802 H           1 ACT       0.0584
     42 H8         -8.9975   19.1409    4.6483 H           1 ACT       0.0703
     43 H9         -8.4795   16.1279    7.5621 H           1 ACT       0.0703
     44 H10        -6.6638   19.0019    4.0949 H           1 ACT       0.0736
     45 H11        -6.1359   16.0188    7.0181 H           1 ACT       0.0736
     46 H12       -16.4561   16.3194    7.6119 H           1 ACT       0.0276
     47 H13       -15.0260   17.5229    7.4246 H           1 ACT       0.0276
     48 H14       -15.5817   17.8087    5.0536 H           1 ACT       0.0276
     49 H15       -16.9818   16.5838    5.2232 H           1 ACT       0.0276
     50 H16       -13.1160   15.0551    5.5959 H           1 ACT       0.1839
     51 H17       -16.1529   14.6552    4.0887 H           1 ACT       0.1891
     52 H18       -16.7875   12.1569    5.5044 H           1 ACT       0.0828
     53 H19       -18.5237   12.2265    3.4129 H           1 ACT       0.0551
     54 H20       -18.2174   13.9512    3.5116 H           1 ACT       0.0551
     55 H21       -21.1494   13.5003    5.5010 H           1 ACT       0.1814
     56 H22       -20.6841   13.7036    3.8980 H           1 ACT       0.1814
     57 H23       -14.5029   11.7750    2.3280 H           1 ACT       0.1815
     58 H24       -14.6273   13.2741    3.0653 H           1 ACT       0.1815
@<TRIPOS>BOND
     1     1     2   2
     2     1     3   1
     3     4     1  am
     4     5     4   1
     5     6     5   1
     6     5     8   1
     7     6     7   2
     8    25     6  am
     9     8     9   1
    10     9    10  ar
    11     9    11  ar
    12    10    12  ar
    13    11    13  ar
    14    12    14  ar
    15    13    14  ar
    16    14    15   1
    17    15    16   1
    18    16    17  ar
    19    16    18  ar
    20    16    19  ar
    21    21    20   1
    22    22    20   1
    23    22    21   1
    24    22    23   1
    25    22    25   1
    26    23    24   2
    27    23    26  am
    28    26    27   1
    29    27    28   1
    30    27    30   1
    31    28    29   2
    32    28    34  am
    33    30    31   1
    34    31    32   2
    35    31    33  am
    36     3    35   1
    37     3    36   1
    38     3    37   1
    39     4    38   1
    40     5    39   1
    41     8    40   1
    42     8    41   1
    43    10    42   1
    44    11    43   1
    45    12    44   1
    46    13    45   1
    47    20    46   1
    48    20    47   1
    49    21    48   1
    50    21    49   1
    51    25    50   1
    52    26    51   1
    53    27    52   1
    54    30    53   1
    55    30    54   1
    56    33    55   1
    57    33    56   1
    58    34    57   1
    59    34    58   1
@<TRIPOS>SUBSTRUCTURE
     1  ACT      1

