@<TRIPOS>MOLECULE
3ov1_ligand_056
    58    59
SMALL
GAST_HUCK
****
This file was generated by PARSER (from files_GN.cpp)

@<TRIPOS>ATOM
      1 C         -11.3459    8.5986   -2.5973 C.2         1 ACT       0.1753
      2 O         -12.3937    8.8750   -3.1658 O.2         1 ACT      -0.3972
      3 CH3       -11.3998    7.7468   -1.4298 C.3         1 ACT       0.0258
      4 N         -10.1808    9.0762   -3.0107 N.am        1 ACT      -0.2628
      5 CA         -9.9428    9.9725   -4.1129 C.3         1 ACT       0.1465
      6 C         -10.3253    9.4259   -5.4230 C.2         1 ACT       0.2045
      7 O         -10.7767    8.2907   -5.5373 O.2         1 ACT      -0.3944
      8 CB         -8.4395   10.4381   -4.0647 C.3         1 ACT       0.0400
      9 CG         -8.1548   11.7863   -3.4779 C.ar        1 ACT      -0.0004
     10 CD1        -6.9798   12.4776   -3.8645 C.ar        1 ACT      -0.0239
     11 CD2        -8.9808   12.3896   -2.4940 C.ar        1 ACT      -0.0239
     12 CE1        -6.6700   13.7447   -3.3402 C.ar        1 ACT       0.0115
     13 CE2        -8.6845   13.6704   -1.9826 C.ar        1 ACT       0.0115
     14 CZ         -7.5425   14.3681   -2.4239 C.ar        1 ACT       0.1728
     15 OH         -7.2234   15.5799   -1.8713 O.3         1 ACT      -0.2040
     16 P          -7.7396   16.8079   -2.6792 P.3         1 ACT       0.1348
     17 O1P        -7.3831   17.9909   -1.9428 O.co2       1 ACT      -0.6653
     18 O2P        -7.1124   16.9167   -3.9733 O.co2       1 ACT      -0.6653
     19 O3P        -9.1735   16.8166   -2.8280 O.co2       1 ACT      -0.6653
     20 CB        -12.1147   10.6085   -8.0716 C.3         1 ACT      -0.0184
     21 CG        -10.8653   11.3539   -8.5611 C.3         1 ACT      -0.0184
     22 CA        -10.7215   10.0127   -7.7926 C.3         1 ACT       0.1329
     23 C         -10.1908    8.9090   -8.5992 C.2         1 ACT       0.2267
     24 O          -9.4096    8.1381   -8.0599 O.2         1 ACT      -0.3419
     25 N         -10.2208   10.2399   -6.4673 N.am        1 ACT      -0.2738
     26 N         -10.6049    8.6706   -9.8367 N.am        1 ACT      -0.2608
     27 CA        -10.2329    7.5365  -10.6539 C.3         1 ACT       0.1474
     28 C         -10.7269    7.7163  -12.0205 C.2         1 ACT       0.2017
     29 O         -10.7638    8.8310  -12.5309 O.2         1 ACT      -0.3945
     30 CB        -10.6736    6.1742  -10.0113 C.3         1 ACT       0.0774
     31 CG        -10.8226    6.1547   -8.5647 C.2         1 ACT       0.1781
     32 OD1       -10.1507    5.4151   -7.8578 O.2         1 ACT      -0.3970
     33 ND2       -11.7303    6.9121   -7.9896 N.am        1 ACT      -0.3007
     34 N         -11.0581    6.7195  -12.8180 N.am        1 ACT      -0.2988
     35 H1        -10.4077    7.5759   -1.0084 H           1 ACT       0.0467
     36 H2        -11.8369    6.7827   -1.6940 H           1 ACT       0.0467
     37 H3        -12.0148    8.2188   -0.6658 H           1 ACT       0.0467
     38 H4         -9.4104    8.8246   -2.4802 H           1 ACT       0.1885
     39 H5        -10.5853   10.8450   -3.9673 H           1 ACT       0.0840
     40 H6         -8.0245   10.4195   -5.0758 H           1 ACT       0.0584
     41 H7         -7.8345    9.7200   -3.4995 H           1 ACT       0.0584
     42 H8         -6.3311   12.0579   -4.5311 H           1 ACT       0.0703
     43 H9         -9.8080   11.9041   -2.1413 H           1 ACT       0.0703
     44 H10        -5.8119   14.2155   -3.6313 H           1 ACT       0.0736
     45 H11        -9.2945   14.0890   -1.2800 H           1 ACT       0.0736
     46 H12       -12.7225   10.1296   -8.8435 H           1 ACT       0.0276
     47 H13       -12.6269   11.0196   -7.1969 H           1 ACT       0.0276
     48 H14       -10.7066   12.2916   -8.0251 H           1 ACT       0.0276
     49 H15       -10.7628   11.3649   -9.6496 H           1 ACT       0.0276
     50 H16        -9.8623   11.1241   -6.2957 H           1 ACT       0.1839
     51 H17       -11.2193    9.3122  -10.2322 H           1 ACT       0.1891
     52 H18        -9.1435    7.5315  -10.7502 H           1 ACT       0.0828
     53 H19        -9.9472    5.4054  -10.3007 H           1 ACT       0.0551
     54 H20       -11.6354    5.8773  -10.4323 H           1 ACT       0.0551
     55 H21       -11.8469    6.8995   -7.0234 H           1 ACT       0.1814
     56 H22       -12.2418    7.5396   -8.5281 H           1 ACT       0.1814
     57 H23       -11.3505    6.8956  -13.7240 H           1 ACT       0.1815
     58 H24       -10.9942    5.8058  -12.5086 H           1 ACT       0.1815
@<TRIPOS>BOND
     1     1     2   2
     2     1     3   1
     3     4     1  am
     4     5     4   1
     5     6     5   1
     6     5     8   1
     7     6     7   2
     8    25     6  am
     9     8     9   1
    10     9    10  ar
    11     9    11  ar
    12    10    12  ar
    13    11    13  ar
    14    12    14  ar
    15    13    14  ar
    16    14    15   1
    17    15    16   1
    18    16    17  ar
    19    16    18  ar
    20    16    19  ar
    21    21    20   1
    22    22    20   1
    23    22    21   1
    24    22    23   1
    25    22    25   1
    26    23    24   2
    27    23    26  am
    28    26    27   1
    29    27    28   1
    30    27    30   1
    31    28    29   2
    32    28    34  am
    33    30    31   1
    34    31    32   2
    35    31    33  am
    36     3    35   1
    37     3    36   1
    38     3    37   1
    39     4    38   1
    40     5    39   1
    41     8    40   1
    42     8    41   1
    43    10    42   1
    44    11    43   1
    45    12    44   1
    46    13    45   1
    47    20    46   1
    48    20    47   1
    49    21    48   1
    50    21    49   1
    51    25    50   1
    52    26    51   1
    53    27    52   1
    54    30    53   1
    55    30    54   1
    56    33    55   1
    57    33    56   1
    58    34    57   1
    59    34    58   1
@<TRIPOS>SUBSTRUCTURE
     1  ACT      1

