@<TRIPOS>MOLECULE
3ov1_ligand_021
    58    59
SMALL
GAST_HUCK
****
This file was generated by PARSER (from files_GN.cpp)

@<TRIPOS>ATOM
      1 C         -16.5832   12.2363   -1.7600 C.2         1 ACT       0.1753
      2 O         -16.4669   11.3875   -0.8845 O.2         1 ACT      -0.3972
      3 CH3       -17.8444   12.3144   -2.4570 C.3         1 ACT       0.0258
      4 N         -15.5968   13.0746   -2.0547 N.am        1 ACT      -0.2628
      5 CA        -14.3487   13.2170   -1.3450 C.3         1 ACT       0.1465
      6 C         -14.5645   13.9719   -0.1147 C.2         1 ACT       0.2045
      7 O         -15.2027   15.0185   -0.1435 O.2         1 ACT      -0.3944
      8 CB        -13.2578   13.8907   -2.2473 C.3         1 ACT       0.0400
      9 CG        -12.4632   12.9539   -3.0956 C.ar        1 ACT      -0.0004
     10 CD1       -12.4828   13.0204   -4.5124 C.ar        1 ACT      -0.0239
     11 CD2       -11.5757   12.0343   -2.4853 C.ar        1 ACT      -0.0239
     12 CE1       -11.6533   12.1831   -5.2881 C.ar        1 ACT       0.0115
     13 CE2       -10.7615   11.1893   -3.2576 C.ar        1 ACT       0.0115
     14 CZ        -10.8008   11.2467   -4.6670 C.ar        1 ACT       0.1728
     15 OH         -9.9126   10.4701   -5.3592 O.3         1 ACT      -0.2040
     16 P         -10.5141    9.2530   -6.1144 P.3         1 ACT       0.1348
     17 O1P       -10.9243    9.6446   -7.4442 O.co2       1 ACT      -0.6653
     18 O2P        -9.4498    8.2938   -6.2786 O.co2       1 ACT      -0.6653
     19 O3P       -11.5957    8.5705   -5.4412 O.co2       1 ACT      -0.6653
     20 CB        -12.7067   14.6285    2.7701 C.3         1 ACT      -0.0184
     21 CG        -13.8196   15.6433    2.5361 C.3         1 ACT      -0.0184
     22 CA        -14.1044   14.1435    2.3125 C.3         1 ACT       0.1329
     23 C         -14.7535   13.3296    3.3182 C.2         1 ACT       0.2267
     24 O         -14.1815   12.3051    3.6712 O.2         1 ACT      -0.3419
     25 N         -13.9997   13.5485    1.0135 N.am        1 ACT      -0.2738
     26 N         -15.9804   13.6148    3.7370 N.am        1 ACT      -0.2608
     27 CA        -16.7802   12.7824    4.5981 C.3         1 ACT       0.1474
     28 C         -18.1920   13.1025    4.3920 C.2         1 ACT       0.2017
     29 O         -18.8027   13.8787    5.1156 O.2         1 ACT      -0.3945
     30 CB        -16.2920   12.7682    6.0866 C.3         1 ACT       0.0774
     31 CG        -16.4313   13.9999    6.8444 C.2         1 ACT       0.1781
     32 OD1       -17.1021   14.0247    7.8652 O.2         1 ACT      -0.3970
     33 ND2       -15.8375   15.1161    6.4787 N.am        1 ACT      -0.3007
     34 N         -18.8423   12.6247    3.3533 N.am        1 ACT      -0.2988
     35 H1        -17.8585   13.1493   -3.1591 H           1 ACT       0.0467
     36 H2        -18.6536   12.4549   -1.7371 H           1 ACT       0.0467
     37 H3        -18.0159   11.3887   -3.0097 H           1 ACT       0.0467
     38 H4        -15.7724   13.7115   -2.7734 H           1 ACT       0.1885
     39 H5        -14.0005   12.2166   -1.0836 H           1 ACT       0.0840
     40 H6        -12.5269   14.4216   -1.6217 H           1 ACT       0.0584
     41 H7        -13.7300   14.6661   -2.8676 H           1 ACT       0.0584
     42 H8        -13.0851   13.6948   -4.9853 H           1 ACT       0.0703
     43 H9        -11.4999   11.9869   -1.4615 H           1 ACT       0.0703
     44 H10       -11.6636   12.2616   -6.3055 H           1 ACT       0.0736
     45 H11       -10.1182   10.5382   -2.7915 H           1 ACT       0.0736
     46 H12       -12.4253   14.5412    3.8215 H           1 ACT       0.0276
     47 H13       -11.9063   14.7038    2.0239 H           1 ACT       0.0276
     48 H14       -13.6620   16.2789    1.6600 H           1 ACT       0.0276
     49 H15       -14.2479   16.0903    3.4340 H           1 ACT       0.0276
     50 H16       -13.4992   12.7124    0.9679 H           1 ACT       0.1839
     51 H17       -16.4050   14.4043    3.3578 H           1 ACT       0.1891
     52 H18       -16.6626   11.7505    4.2507 H           1 ACT       0.0828
     53 H19       -15.2355   12.4924    6.1176 H           1 ACT       0.0551
     54 H20       -16.8291   11.9675    6.6041 H           1 ACT       0.0551
     55 H21       -15.9448   15.9189    7.0136 H           1 ACT       0.1814
     56 H22       -15.3069   15.1472    5.6662 H           1 ACT       0.1814
     57 H23       -19.7722   12.8611    3.2184 H           1 ACT       0.1815
     58 H24       -18.4014   12.0243    2.7329 H           1 ACT       0.1815
@<TRIPOS>BOND
     1     1     2   2
     2     1     3   1
     3     4     1  am
     4     5     4   1
     5     6     5   1
     6     5     8   1
     7     6     7   2
     8    25     6  am
     9     8     9   1
    10     9    10  ar
    11     9    11  ar
    12    10    12  ar
    13    11    13  ar
    14    12    14  ar
    15    13    14  ar
    16    14    15   1
    17    15    16   1
    18    16    17  ar
    19    16    18  ar
    20    16    19  ar
    21    21    20   1
    22    22    20   1
    23    22    21   1
    24    22    23   1
    25    22    25   1
    26    23    24   2
    27    23    26  am
    28    26    27   1
    29    27    28   1
    30    27    30   1
    31    28    29   2
    32    28    34  am
    33    30    31   1
    34    31    32   2
    35    31    33  am
    36     3    35   1
    37     3    36   1
    38     3    37   1
    39     4    38   1
    40     5    39   1
    41     8    40   1
    42     8    41   1
    43    10    42   1
    44    11    43   1
    45    12    44   1
    46    13    45   1
    47    20    46   1
    48    20    47   1
    49    21    48   1
    50    21    49   1
    51    25    50   1
    52    26    51   1
    53    27    52   1
    54    30    53   1
    55    30    54   1
    56    33    55   1
    57    33    56   1
    58    34    57   1
    59    34    58   1
@<TRIPOS>SUBSTRUCTURE
     1  ACT      1

