@<TRIPOS>MOLECULE
3ov1_ligand_002
    58    59
SMALL
GAST_HUCK
****
This file was generated by PARSER (from files_GN.cpp)

@<TRIPOS>ATOM
      1 C         -14.6603   12.1136   -1.3398 C.2         1 ACT       0.1753
      2 O         -14.1941   11.7714   -2.4179 O.2         1 ACT      -0.3972
      3 CH3       -16.0978   12.1847   -1.2310 C.3         1 ACT       0.0258
      4 N         -13.8863   12.3756   -0.2926 N.am        1 ACT      -0.2628
      5 CA        -12.4518   12.2383   -0.2317 C.3         1 ACT       0.1465
      6 C         -11.9475   12.4129    1.1350 C.2         1 ACT       0.2045
      7 O         -11.0019   11.7192    1.4914 O.2         1 ACT      -0.3944
      8 CB        -11.6737   13.1815   -1.2221 C.3         1 ACT       0.0400
      9 CG        -11.1826   12.4778   -2.4438 C.ar        1 ACT      -0.0004
     10 CD1       -11.5947   12.8511   -3.7433 C.ar        1 ACT      -0.0239
     11 CD2       -10.2653   11.4087   -2.3084 C.ar        1 ACT      -0.0239
     12 CE1       -11.1574   12.1262   -4.8671 C.ar        1 ACT       0.0115
     13 CE2        -9.8098   10.6977   -3.4352 C.ar        1 ACT       0.0115
     14 CZ        -10.2922   11.0193   -4.7279 C.ar        1 ACT       0.1728
     15 OH         -9.8584   10.3783   -5.8653 O.3         1 ACT      -0.2040
     16 P         -10.1502    8.8469   -5.9706 P.3         1 ACT       0.1348
     17 O1P       -11.5060    8.5006   -5.6317 O.co2       1 ACT      -0.6653
     18 O2P        -9.8883    8.3870   -7.3074 O.co2       1 ACT      -0.6653
     19 O3P        -9.2942    8.0760   -5.1033 O.co2       1 ACT      -0.6653
     20 CB        -12.9835   13.3134    4.3188 C.3         1 ACT      -0.0184
     21 CG        -11.6852   12.5068    4.2655 C.3         1 ACT      -0.0184
     22 CA        -11.9100   13.6559    3.2600 C.3         1 ACT       0.1329
     23 C         -11.2821   14.9381    3.4999 C.2         1 ACT       0.2267
     24 O         -11.9445   15.9552    3.3353 O.2         1 ACT      -0.3419
     25 N         -12.3780   13.3852    1.9313 N.am        1 ACT      -0.2738
     26 N         -10.0017   14.9769    3.8453 N.am        1 ACT      -0.2608
     27 CA         -9.1849   16.1337    4.0956 C.3         1 ACT       0.1474
     28 C          -8.2551   16.2601    2.9776 C.2         1 ACT       0.2017
     29 O          -7.0421   16.1959    3.1152 O.2         1 ACT      -0.3945
     30 CB         -8.5511   16.0375    5.5221 C.3         1 ACT       0.0774
     31 CG         -7.8327   14.8069    5.8091 C.2         1 ACT       0.1781
     32 OD1        -6.6315   14.7217    5.6026 O.2         1 ACT      -0.3970
     33 ND2        -8.4437   13.7578    6.3153 N.am        1 ACT      -0.3007
     34 N          -8.7083   16.4857    1.7623 N.am        1 ACT      -0.2988
     35 H1        -16.4180   12.3537   -0.2000 H           1 ACT       0.0467
     36 H2        -16.5361   11.2470   -1.5801 H           1 ACT       0.0467
     37 H3        -16.4682   13.0020   -1.8536 H           1 ACT       0.0467
     38 H4        -14.3449   12.6005    0.5321 H           1 ACT       0.1885
     39 H5        -12.2772   11.1886   -0.5010 H           1 ACT       0.0840
     40 H6        -10.7891   13.6117   -0.7464 H           1 ACT       0.0584
     41 H7        -12.3134   14.0280   -1.4848 H           1 ACT       0.0584
     42 H8        -12.2337   13.6403   -3.8766 H           1 ACT       0.0703
     43 H9         -9.9385   11.1285   -1.3806 H           1 ACT       0.0703
     44 H10       -11.4757   12.4033   -5.7976 H           1 ACT       0.0736
     45 H11        -9.1411    9.9361   -3.3096 H           1 ACT       0.0736
     46 H12       -13.0621   13.9091    5.2324 H           1 ACT       0.0276
     47 H13       -13.8550   12.7260    4.0127 H           1 ACT       0.0276
     48 H14       -11.7954   11.4895    3.8870 H           1 ACT       0.0276
     49 H15       -10.9779   12.7023    5.0715 H           1 ACT       0.0276
     50 H16       -13.0512   13.9831    1.5829 H           1 ACT       0.1839
     51 H17        -9.5551   14.1200    3.9176 H           1 ACT       0.1891
     52 H18        -9.7872   17.0471    4.0961 H           1 ACT       0.0828
     53 H19        -9.3480   16.1537    6.2610 H           1 ACT       0.0551
     54 H20        -7.8789   16.8895    5.6713 H           1 ACT       0.0551
     55 H21        -7.9457   12.9465    6.5100 H           1 ACT       0.1814
     56 H22        -9.3953   13.7903    6.5089 H           1 ACT       0.1814
     57 H23        -8.0910   16.5788    1.0200 H           1 ACT       0.1815
     58 H24        -9.6650   16.5503    1.6063 H           1 ACT       0.1815
@<TRIPOS>BOND
     1     1     2   2
     2     1     3   1
     3     4     1  am
     4     5     4   1
     5     6     5   1
     6     5     8   1
     7     6     7   2
     8    25     6  am
     9     8     9   1
    10     9    10  ar
    11     9    11  ar
    12    10    12  ar
    13    11    13  ar
    14    12    14  ar
    15    13    14  ar
    16    14    15   1
    17    15    16   1
    18    16    17  ar
    19    16    18  ar
    20    16    19  ar
    21    21    20   1
    22    22    20   1
    23    22    21   1
    24    22    23   1
    25    22    25   1
    26    23    24   2
    27    23    26  am
    28    26    27   1
    29    27    28   1
    30    27    30   1
    31    28    29   2
    32    28    34  am
    33    30    31   1
    34    31    32   2
    35    31    33  am
    36     3    35   1
    37     3    36   1
    38     3    37   1
    39     4    38   1
    40     5    39   1
    41     8    40   1
    42     8    41   1
    43    10    42   1
    44    11    43   1
    45    12    44   1
    46    13    45   1
    47    20    46   1
    48    20    47   1
    49    21    48   1
    50    21    49   1
    51    25    50   1
    52    26    51   1
    53    27    52   1
    54    30    53   1
    55    30    54   1
    56    33    55   1
    57    33    56   1
    58    34    57   1
    59    34    58   1
@<TRIPOS>SUBSTRUCTURE
     1  ACT      1

