@<TRIPOS>MOLECULE
3ov1_ligand_040
    58    59
SMALL
GAST_HUCK
****
This file was generated by PARSER (from files_GN.cpp)

@<TRIPOS>ATOM
      1 C         -10.8571   11.6465   -0.2312 C.2         1 ACT       0.1753
      2 O         -10.0295   12.3843   -0.7688 O.2         1 ACT      -0.3972
      3 CH3       -11.1119   10.3778   -0.8646 C.3         1 ACT       0.0258
      4 N         -11.5088   12.0152    0.8665 N.am        1 ACT      -0.2628
      5 CA        -11.2452   13.1768    1.6771 C.3         1 ACT       0.1465
      6 C         -11.0793   12.6919    3.0456 C.2         1 ACT       0.2045
      7 O         -12.0646   12.2609    3.6418 O.2         1 ACT      -0.3944
      8 CB        -12.3135   14.3119    1.4230 C.3         1 ACT       0.0400
      9 CG        -13.4222   14.4539    2.4100 C.ar        1 ACT      -0.0004
     10 CD1       -13.1904   15.0772    3.6501 C.ar        1 ACT      -0.0239
     11 CD2       -14.7231   13.9568    2.1308 C.ar        1 ACT      -0.0239
     12 CE1       -14.2093   15.1770    4.6189 C.ar        1 ACT       0.0115
     13 CE2       -15.7478   14.0728    3.0934 C.ar        1 ACT       0.0115
     14 CZ        -15.4846   14.6425    4.3568 C.ar        1 ACT       0.1728
     15 OH        -16.4824   14.7476    5.2896 O.3         1 ACT      -0.2040
     16 P         -16.6533   13.4824    6.1774 P.3         1 ACT       0.1348
     17 O1P       -15.8858   13.3924    7.4064 O.co2       1 ACT      -0.6653
     18 O2P       -18.0273   13.5681    6.6246 O.co2       1 ACT      -0.6653
     19 O3P       -16.6072   12.2278    5.4638 O.co2       1 ACT      -0.6653
     20 CB        -10.3267   11.3809    5.9220 C.3         1 ACT      -0.0184
     21 CG         -9.3453   10.6225    5.0206 C.3         1 ACT      -0.0184
     22 CA         -9.4648   12.1656    4.8967 C.3         1 ACT       0.1329
     23 C          -8.4621   12.9991    5.5234 C.2         1 ACT       0.2267
     24 O          -7.3191   12.5817    5.6570 O.2         1 ACT      -0.3419
     25 N          -9.8662   12.6039    3.5900 N.am        1 ACT      -0.2738
     26 N          -8.8071   14.2287    5.8831 N.am        1 ACT      -0.2608
     27 CA         -8.0609   15.1834    6.6627 C.3         1 ACT       0.1474
     28 C          -8.6840   16.4861    6.4590 C.2         1 ACT       0.2017
     29 O          -8.7628   16.9700    5.3354 O.2         1 ACT      -0.3945
     30 CB         -6.5012   15.2461    6.4118 C.3         1 ACT       0.0774
     31 CG         -5.6984   14.7684    7.5309 C.2         1 ACT       0.1781
     32 OD1        -4.8442   15.4790    8.0498 O.2         1 ACT      -0.3970
     33 ND2        -5.8707   13.5763    8.0681 N.am        1 ACT      -0.3007
     34 N          -9.1382   17.2151    7.4491 N.am        1 ACT      -0.2988
     35 H1        -11.8366    9.7825   -0.3045 H           1 ACT       0.0467
     36 H2        -10.1806    9.8093   -0.9302 H           1 ACT       0.0467
     37 H3        -11.4995   10.5391   -1.8731 H           1 ACT       0.0467
     38 H4        -12.2094   11.4167    1.1814 H           1 ACT       0.1885
     39 H5        -10.2830   13.6105    1.3669 H           1 ACT       0.0840
     40 H6        -12.7320   14.1824    0.4201 H           1 ACT       0.0584
     41 H7        -11.7933   15.2755    1.3793 H           1 ACT       0.0584
     42 H8        -12.2655   15.4556    3.8752 H           1 ACT       0.0703
     43 H9        -14.9294   13.5096    1.2388 H           1 ACT       0.0703
     44 H10       -14.0200   15.6340    5.5187 H           1 ACT       0.0736
     45 H11       -16.6800   13.7191    2.8761 H           1 ACT       0.0736
     46 H12       -10.0264   11.3986    6.9756 H           1 ACT       0.0276
     47 H13       -11.3616   11.1468    5.7011 H           1 ACT       0.0276
     48 H14        -9.8225   10.0372    4.2310 H           1 ACT       0.0276
     49 H15        -8.4781   10.2014    5.5324 H           1 ACT       0.0276
     50 H16        -9.1386   12.9201    3.0269 H           1 ACT       0.1839
     51 H17        -9.7238   14.4832    5.6782 H           1 ACT       0.1891
     52 H18        -8.2392   14.8929    7.7034 H           1 ACT       0.0828
     53 H19        -6.1876   16.2720    6.1825 H           1 ACT       0.0551
     54 H20        -6.2548   14.6447    5.5259 H           1 ACT       0.0551
     55 H21        -5.3600   13.3111    8.8544 H           1 ACT       0.1814
     56 H22        -6.5700   12.9812    7.7440 H           1 ACT       0.1814
     57 H23        -9.5286   18.0887    7.2779 H           1 ACT       0.1815
     58 H24        -9.0706   16.9125    8.3689 H           1 ACT       0.1815
@<TRIPOS>BOND
     1     1     2   2
     2     1     3   1
     3     4     1  am
     4     5     4   1
     5     6     5   1
     6     5     8   1
     7     6     7   2
     8    25     6  am
     9     8     9   1
    10     9    10  ar
    11     9    11  ar
    12    10    12  ar
    13    11    13  ar
    14    12    14  ar
    15    13    14  ar
    16    14    15   1
    17    15    16   1
    18    16    17  ar
    19    16    18  ar
    20    16    19  ar
    21    21    20   1
    22    22    20   1
    23    22    21   1
    24    22    23   1
    25    22    25   1
    26    23    24   2
    27    23    26  am
    28    26    27   1
    29    27    28   1
    30    27    30   1
    31    28    29   2
    32    28    34  am
    33    30    31   1
    34    31    32   2
    35    31    33  am
    36     3    35   1
    37     3    36   1
    38     3    37   1
    39     4    38   1
    40     5    39   1
    41     8    40   1
    42     8    41   1
    43    10    42   1
    44    11    43   1
    45    12    44   1
    46    13    45   1
    47    20    46   1
    48    20    47   1
    49    21    48   1
    50    21    49   1
    51    25    50   1
    52    26    51   1
    53    27    52   1
    54    30    53   1
    55    30    54   1
    56    33    55   1
    57    33    56   1
    58    34    57   1
    59    34    58   1
@<TRIPOS>SUBSTRUCTURE
     1  ACT      1

