@<TRIPOS>MOLECULE
3ov1_ligand_084
    58    59
SMALL
GAST_HUCK
****
This file was generated by PARSER (from files_GN.cpp)

@<TRIPOS>ATOM
      1 C         -13.1525   13.5860   -2.7565 C.2         1 ACT       0.1753
      2 O         -13.9145   12.6931   -3.0987 O.2         1 ACT      -0.3972
      3 CH3       -12.8150   14.6111   -3.7163 C.3         1 ACT       0.0258
      4 N         -12.6047   13.6001   -1.5490 N.am        1 ACT      -0.2628
      5 CA        -12.7775   12.6074   -0.5200 C.3         1 ACT       0.1465
      6 C         -12.7495   13.2883    0.7724 C.2         1 ACT       0.2045
      7 O         -13.7899   13.4367    1.4076 O.2         1 ACT      -0.3944
      8 CB        -11.7731   11.3937   -0.6047 C.3         1 ACT       0.0400
      9 CG        -10.8197   11.3867   -1.7553 C.ar        1 ACT      -0.0004
     10 CD1        -9.7552   12.3171   -1.8264 C.ar        1 ACT      -0.0239
     11 CD2       -10.9699   10.4597   -2.8136 C.ar        1 ACT      -0.0239
     12 CE1        -8.8868   12.3371   -2.9317 C.ar        1 ACT       0.0115
     13 CE2       -10.1002   10.4796   -3.9183 C.ar        1 ACT       0.0115
     14 CZ         -9.0704   11.4358   -4.0041 C.ar        1 ACT       0.1728
     15 OH         -8.1966   11.3765   -5.0573 O.3         1 ACT      -0.2040
     16 P          -8.5582   12.2989   -6.2541 P.3         1 ACT       0.1348
     17 O1P        -8.8882   13.6230   -5.7768 O.co2       1 ACT      -0.6653
     18 O2P        -7.3774   12.4502   -7.0610 O.co2       1 ACT      -0.6653
     19 O3P        -9.6252   11.8117   -7.0992 O.co2       1 ACT      -0.6653
     20 CB        -10.8021   15.8118    2.3370 C.3         1 ACT      -0.0184
     21 CG        -12.2650   15.6695    2.7647 C.3         1 ACT      -0.0184
     22 CA        -11.4145   14.4050    2.5020 C.3         1 ACT       0.1329
     23 C         -10.8540   13.6310    3.5990 C.2         1 ACT       0.2267
     24 O         -11.3031   13.7867    4.7252 O.2         1 ACT      -0.3419
     25 N         -11.6016   13.7457    1.2494 N.am        1 ACT      -0.2738
     26 N          -9.8536   12.7950    3.3427 N.am        1 ACT      -0.2608
     27 CA         -9.0262   12.0380    4.2484 C.3         1 ACT       0.1474
     28 C          -9.7343   11.2409    5.2543 C.2         1 ACT       0.2017
     29 O         -10.4018   11.7636    6.1353 O.2         1 ACT      -0.3945
     30 CB         -7.8442   12.8679    4.8393 C.3         1 ACT       0.0774
     31 CG         -8.1941   14.0458    5.6113 C.2         1 ACT       0.1781
     32 OD1        -8.4416   15.1034    5.0507 O.2         1 ACT      -0.3970
     33 ND2        -8.1564   14.0430    6.9243 N.am        1 ACT      -0.3007
     34 N          -9.5881    9.9335    5.3314 N.am        1 ACT      -0.2988
     35 H1        -12.1590   15.3702   -3.2840 H           1 ACT       0.0467
     36 H2        -13.7228   15.1033   -4.0656 H           1 ACT       0.0467
     37 H3        -12.3035   14.1586   -4.5669 H           1 ACT       0.0467
     38 H4        -12.0095   14.3426   -1.3526 H           1 ACT       0.1885
     39 H5        -13.7914   12.2019   -0.6451 H           1 ACT       0.0840
     40 H6        -12.3765   10.4819   -0.6405 H           1 ACT       0.0584
     41 H7        -11.1786   11.3122    0.3087 H           1 ACT       0.0584
     42 H8         -9.5922   12.9702   -1.0601 H           1 ACT       0.0703
     43 H9        -11.7127    9.7553   -2.7861 H           1 ACT       0.0703
     44 H10        -8.1176   13.0141   -2.9616 H           1 ACT       0.0736
     45 H11       -10.2216    9.7939   -4.6650 H           1 ACT       0.0736
     46 H12       -10.1488   16.1897    3.1258 H           1 ACT       0.0276
     47 H13       -10.6734   16.2012    1.3253 H           1 ACT       0.0276
     48 H14       -12.9942   15.9473    1.9999 H           1 ACT       0.0276
     49 H15       -12.4629   15.9473    3.8024 H           1 ACT       0.0276
     50 H16       -10.8101   13.6016    0.7118 H           1 ACT       0.1839
     51 H17        -9.6071   12.7198    2.4057 H           1 ACT       0.1891
     52 H18        -8.5320   11.3237    3.5807 H           1 ACT       0.0828
     53 H19        -7.1916   13.1828    4.0184 H           1 ACT       0.0551
     54 H20        -7.2438   12.1966    5.4606 H           1 ACT       0.0551
     55 H21        -8.3434   14.8565    7.4154 H           1 ACT       0.1814
     56 H22        -7.9312   13.2315    7.4046 H           1 ACT       0.1814
     57 H23       -10.0191    9.4370    6.0460 H           1 ACT       0.1815
     58 H24        -9.0193    9.4662    4.6980 H           1 ACT       0.1815
@<TRIPOS>BOND
     1     1     2   2
     2     1     3   1
     3     4     1  am
     4     5     4   1
     5     6     5   1
     6     5     8   1
     7     6     7   2
     8    25     6  am
     9     8     9   1
    10     9    10  ar
    11     9    11  ar
    12    10    12  ar
    13    11    13  ar
    14    12    14  ar
    15    13    14  ar
    16    14    15   1
    17    15    16   1
    18    16    17  ar
    19    16    18  ar
    20    16    19  ar
    21    21    20   1
    22    22    20   1
    23    22    21   1
    24    22    23   1
    25    22    25   1
    26    23    24   2
    27    23    26  am
    28    26    27   1
    29    27    28   1
    30    27    30   1
    31    28    29   2
    32    28    34  am
    33    30    31   1
    34    31    32   2
    35    31    33  am
    36     3    35   1
    37     3    36   1
    38     3    37   1
    39     4    38   1
    40     5    39   1
    41     8    40   1
    42     8    41   1
    43    10    42   1
    44    11    43   1
    45    12    44   1
    46    13    45   1
    47    20    46   1
    48    20    47   1
    49    21    48   1
    50    21    49   1
    51    25    50   1
    52    26    51   1
    53    27    52   1
    54    30    53   1
    55    30    54   1
    56    33    55   1
    57    33    56   1
    58    34    57   1
    59    34    58   1
@<TRIPOS>SUBSTRUCTURE
     1  ACT      1

