@<TRIPOS>MOLECULE
3owj_ligand_002
    35    38
SMALL
GAST_HUCK
****
This file was generated by PARSER (from files_GN.cpp)

@<TRIPOS>ATOM
      1 C1         23.3074   -1.8564   19.9582 C.ar        1 MOL       0.0721
      2 O1         24.5178   -2.0640   19.3823 O.3         1 MOL      -0.3416
      3 C2         22.3873   -2.9191   20.0975 C.ar        1 MOL      -0.0447
      4 C3         21.1257   -2.6906   20.6826 C.ar        1 MOL      -0.0486
      5 C4         20.8123   -1.3917   21.1205 C.ar        1 MOL       0.0523
      6 C5         21.7235   -0.3363   21.0217 C.ar        1 MOL      -0.0192
      7 C6         22.9797   -0.5644   20.4179 C.ar        1 MOL      -0.0435
      8 N7         19.6800   -0.9417   21.6672 N.pl3       1 MOL      -0.2844
      9 C8         19.8030    0.3727   21.9256 C.ar        1 MOL       0.0555
     10 C9         21.0902    0.7930   21.5673 C.ar        1 MOL      -0.0101
     11 C10        18.8454    1.2458   22.4781 C.ar        1 MOL      -0.0320
     12 C11        17.4983    0.7251   22.8508 C.3         1 MOL      -0.0404
     13 C12        19.2055    2.6200   22.6124 C.ar        1 MOL      -0.0484
     14 C13        20.5147    3.0755   22.2247 C.ar        1 MOL       0.0334
     15 C14        21.5018    2.1289   21.7966 C.ar        1 MOL      -0.0423
     16 C15        22.9478    2.4570   21.6608 C.3         1 MOL      -0.0337
     17 C16        18.2933    3.5655   23.1224 C.2         1 MOL      -0.0576
     18 C17        18.6200    4.8649   23.1929 C.2         1 MOL       0.0437
     19 N18        19.7972    5.2929   22.7404 N.am        1 MOL      -0.2303
     20 C19        20.7260    4.4771   22.2571 C.2         1 MOL       0.2129
     21 O19        21.6634    5.0437   21.7168 O.2         1 MOL      -0.4002
     22 H1         24.3190   -2.5126   18.5231 H           1 MOL       0.2441
     23 H2         22.6283   -3.8577   19.7704 H           1 MOL       0.0496
     24 H3         20.4499   -3.4503   20.7873 H           1 MOL       0.0512
     25 H4         23.6498    0.1887   20.2806 H           1 MOL       0.0468
     26 H5         18.8915   -1.4822   21.8321 H           1 MOL       0.2115
     27 H6         17.3791   -0.3420   22.6583 H           1 MOL       0.0343
     28 H7         16.7305    1.2479   22.2777 H           1 MOL       0.0343
     29 H8         17.3223    0.8872   23.9154 H           1 MOL       0.0343
     30 H9         23.5589    1.6544   22.0749 H           1 MOL       0.0394
     31 H10        23.2440    3.3410   22.2181 H           1 MOL       0.0394
     32 H11        23.1917    2.6006   20.6080 H           1 MOL       0.0394
     33 H12        17.3895    3.2984   23.4341 H           1 MOL       0.0271
     34 H13        17.9657    5.5286   23.5422 H           1 MOL       0.1097
     35 H14        19.9623    6.2510   22.7241 H           1 MOL       0.2459
@<TRIPOS>BOND
     1     1     2   1
     2     1     3  ar
     3     1     7  ar
     4     3     4  ar
     5     4     5  ar
     6     5     6  ar
     7     5     8   1
     8     6     7  ar
     9     6    10   1
    10     8     9   1
    11     9    10  ar
    12     9    11  ar
    13    10    15  ar
    14    11    12   1
    15    11    13  ar
    16    13    14  ar
    17    13    17   1
    18    14    15  ar
    19    14    20   1
    20    15    16   1
    21    17    18   2
    22    18    19  am
    23    19    20  am
    24    20    21   2
    25     2    22   1
    26     3    23   1
    27     4    24   1
    28     7    25   1
    29     8    26   1
    30    12    27   1
    31    12    28   1
    32    12    29   1
    33    16    30   1
    34    16    31   1
    35    16    32   1
    36    17    33   1
    37    18    34   1
    38    19    35   1
@<TRIPOS>SUBSTRUCTURE
     1  MOL      1

