@<TRIPOS>MOLECULE
3owj_ligand_028
    35    38
SMALL
GAST_HUCK
****
This file was generated by PARSER (from files_GN.cpp)

@<TRIPOS>ATOM
      1 C1         23.3916    9.1051   15.3488 C.ar        1 MOL       0.0721
      2 O1         23.2231    7.9366   14.6825 O.3         1 MOL      -0.3416
      3 C2         23.6103    9.0894   16.7424 C.ar        1 MOL      -0.0447
      4 C3         23.7715   10.2951   17.4507 C.ar        1 MOL      -0.0486
      5 C4         23.7260   11.5039   16.7362 C.ar        1 MOL       0.0523
      6 C5         23.5427   11.5452   15.3500 C.ar        1 MOL      -0.0192
      7 C6         23.3520   10.3322   14.6490 C.ar        1 MOL      -0.0435
      8 N7         23.8221   12.7535   17.2022 N.pl3       1 MOL      -0.2844
      9 C8         23.7079   13.6197   16.1801 C.ar        1 MOL       0.0555
     10 C9         23.5574   12.9027   14.9859 C.ar        1 MOL      -0.0101
     11 C10        23.7385   15.0284   16.2249 C.ar        1 MOL      -0.0320
     12 C11        23.9401   15.7199   17.5307 C.3         1 MOL      -0.0404
     13 C12        23.5416   15.7326   14.9995 C.ar        1 MOL      -0.0484
     14 C13        23.3558   15.0139   13.7658 C.ar        1 MOL       0.0334
     15 C14        23.4739   13.5858   13.7453 C.ar        1 MOL      -0.0423
     16 C15        23.6207   12.7982   12.4890 C.3         1 MOL      -0.0337
     17 C16        23.5257   17.1421   14.9643 C.2         1 MOL      -0.0576
     18 C17        23.2868   17.7947   13.8160 C.2         1 MOL       0.0437
     19 N18        23.0254   17.1232   12.6964 N.am        1 MOL      -0.2303
     20 C19        23.0332   15.7969   12.6298 C.2         1 MOL       0.2129
     21 O19        22.6025   15.3388   11.5813 O.2         1 MOL      -0.4002
     22 H1         24.1154    7.5285   14.6615 H           1 MOL       0.2441
     23 H2         23.6378    8.1994   17.2449 H           1 MOL       0.0496
     24 H3         23.9114   10.2921   18.4632 H           1 MOL       0.0512
     25 H4         23.1628   10.3258   13.6484 H           1 MOL       0.0468
     26 H5         23.9452   12.9883   18.1353 H           1 MOL       0.2115
     27 H6         24.0728   15.0339   18.3676 H           1 MOL       0.0343
     28 H7         23.0740   16.3454   17.7535 H           1 MOL       0.0343
     29 H8         24.8314   16.3469   17.4795 H           1 MOL       0.0343
     30 H9         24.3681   12.0145   12.6158 H           1 MOL       0.0394
     31 H10        23.9888   13.3949   11.6573 H           1 MOL       0.0394
     32 H11        22.6640   12.3513   12.2148 H           1 MOL       0.0394
     33 H12        23.6882   17.6849   15.7786 H           1 MOL       0.0271
     34 H13        23.2653   18.7872   13.7975 H           1 MOL       0.1097
     35 H14        22.7785   17.6273   11.9043 H           1 MOL       0.2459
@<TRIPOS>BOND
     1     1     2   1
     2     1     3  ar
     3     1     7  ar
     4     3     4  ar
     5     4     5  ar
     6     5     6  ar
     7     5     8   1
     8     6     7  ar
     9     6    10   1
    10     8     9   1
    11     9    10  ar
    12     9    11  ar
    13    10    15  ar
    14    11    12   1
    15    11    13  ar
    16    13    14  ar
    17    13    17   1
    18    14    15  ar
    19    14    20   1
    20    15    16   1
    21    17    18   2
    22    18    19  am
    23    19    20  am
    24    20    21   2
    25     2    22   1
    26     3    23   1
    27     4    24   1
    28     7    25   1
    29     8    26   1
    30    12    27   1
    31    12    28   1
    32    12    29   1
    33    16    30   1
    34    16    31   1
    35    16    32   1
    36    17    33   1
    37    18    34   1
    38    19    35   1
@<TRIPOS>SUBSTRUCTURE
     1  MOL      1

