@<TRIPOS>MOLECULE
3owj_ligand_010
    35    38
SMALL
GAST_HUCK
****
This file was generated by PARSER (from files_GN.cpp)

@<TRIPOS>ATOM
      1 C1         21.8802    8.6142   17.7956 C.ar        1 MOL       0.0721
      2 O1         21.7690    9.8029   18.4355 O.3         1 MOL      -0.3416
      3 C2         21.6568    7.4076   18.4938 C.ar        1 MOL      -0.0447
      4 C3         21.7071    6.1761   17.8146 C.ar        1 MOL      -0.0486
      5 C4         21.9790    6.1865   16.4379 C.ar        1 MOL       0.0523
      6 C5         22.2094    7.3679   15.7272 C.ar        1 MOL      -0.0192
      7 C6         22.1862    8.5977   16.4193 C.ar        1 MOL      -0.0435
      8 N7         22.0845    5.1509   15.6005 N.pl3       1 MOL      -0.2844
      9 C8         22.3861    5.6029   14.3695 C.ar        1 MOL       0.0555
     10 C9         22.4478    7.0008   14.3912 C.ar        1 MOL      -0.0101
     11 C10        22.6078    4.8546   13.1970 C.ar        1 MOL      -0.0320
     12 C11        22.4875    3.3674   13.2412 C.3         1 MOL      -0.0404
     13 C12        22.9712    5.5703   12.0171 C.ar        1 MOL      -0.0484
     14 C13        23.0578    7.0094   12.0205 C.ar        1 MOL       0.0334
     15 C14        22.6901    7.7335   13.1997 C.ar        1 MOL      -0.0423
     16 C15        22.4649    9.2055   13.2065 C.3         1 MOL      -0.0337
     17 C16        23.2507    4.8811   10.8218 C.2         1 MOL      -0.0576
     18 C17        23.6335    5.5547    9.7278 C.2         1 MOL       0.0437
     19 N18        23.7861    6.8755    9.7587 N.am        1 MOL      -0.2303
     20 C19        23.5272    7.6151   10.8273 C.2         1 MOL       0.2129
     21 O19        23.8201    8.7948   10.6961 O.2         1 MOL      -0.4002
     22 H1         20.8247    9.8245   18.7103 H           1 MOL       0.2441
     23 H2         21.4471    7.4279   19.4928 H           1 MOL       0.0496
     24 H3         21.5383    5.3009   18.3077 H           1 MOL       0.0512
     25 H4         22.3849    9.4786   15.9501 H           1 MOL       0.0468
     26 H5         21.9741    4.2208   15.8497 H           1 MOL       0.2115
     27 H6         22.2002    2.9816   14.2226 H           1 MOL       0.0343
     28 H7         23.4456    2.9167   12.9803 H           1 MOL       0.0343
     29 H8         21.7307    3.0416   12.5248 H           1 MOL       0.0343
     30 H9         21.6154    9.4565   13.8341 H           1 MOL       0.0394
     31 H10        22.1986    9.5990   12.2279 H           1 MOL       0.0394
     32 H11        23.3506    9.7241   13.5810 H           1 MOL       0.0394
     33 H12        23.1751    3.8939   10.7506 H           1 MOL       0.0271
     34 H13        23.8276    5.0678    8.8832 H           1 MOL       0.1097
     35 H14        24.1449    7.2968    8.9640 H           1 MOL       0.2459
@<TRIPOS>BOND
     1     1     2   1
     2     1     3  ar
     3     1     7  ar
     4     3     4  ar
     5     4     5  ar
     6     5     6  ar
     7     5     8   1
     8     6     7  ar
     9     6    10   1
    10     8     9   1
    11     9    10  ar
    12     9    11  ar
    13    10    15  ar
    14    11    12   1
    15    11    13  ar
    16    13    14  ar
    17    13    17   1
    18    14    15  ar
    19    14    20   1
    20    15    16   1
    21    17    18   2
    22    18    19  am
    23    19    20  am
    24    20    21   2
    25     2    22   1
    26     3    23   1
    27     4    24   1
    28     7    25   1
    29     8    26   1
    30    12    27   1
    31    12    28   1
    32    12    29   1
    33    16    30   1
    34    16    31   1
    35    16    32   1
    36    17    33   1
    37    18    34   1
    38    19    35   1
@<TRIPOS>SUBSTRUCTURE
     1  MOL      1

