@<TRIPOS>MOLECULE
3owj_ligand_031
    35    38
SMALL
GAST_HUCK
****
This file was generated by PARSER (from files_GN.cpp)

@<TRIPOS>ATOM
      1 C1         17.5684    1.2818   22.6975 C.ar        1 MOL       0.0721
      2 O1         16.2985    1.0095   23.0793 O.3         1 MOL      -0.3416
      3 C2         18.4853    0.2282   22.4992 C.ar        1 MOL      -0.0447
      4 C3         19.8118    0.5076   22.1174 C.ar        1 MOL      -0.0486
      5 C4         20.1902    1.8479   21.9313 C.ar        1 MOL       0.0523
      6 C5         19.2937    2.9069   22.0985 C.ar        1 MOL      -0.0192
      7 C6         17.9741    2.6206   22.5110 C.ar        1 MOL      -0.0435
      8 N7         21.3880    2.3407   21.6046 N.pl3       1 MOL      -0.2844
      9 C8         21.3198    3.6840   21.5531 C.ar        1 MOL       0.0555
     10 C9         20.0077    4.0873   21.8291 C.ar        1 MOL      -0.0101
     11 C10        22.3513    4.5996   21.2629 C.ar        1 MOL      -0.0320
     12 C11        23.7126    4.0926   20.9374 C.3         1 MOL      -0.0404
     13 C12        22.0411    5.9898   21.3226 C.ar        1 MOL      -0.0484
     14 C13        20.7033    6.4244   21.6305 C.ar        1 MOL       0.0334
     15 C14        19.6535    5.4604   21.7784 C.ar        1 MOL      -0.0423
     16 C15        18.2089    5.8229   21.7751 C.3         1 MOL      -0.0337
     17 C16        23.0268    6.9674   21.0757 C.2         1 MOL      -0.0576
     18 C17        22.7318    8.2718   21.1837 C.2         1 MOL       0.0437
     19 N18        21.5174    8.6667   21.5591 N.am        1 MOL      -0.2303
     20 C19        20.5234    7.8193   21.7958 C.2         1 MOL       0.2129
     21 O19        19.5323    8.3287   22.2964 O.2         1 MOL      -0.4002
     22 H1         15.8003    0.9662   22.2352 H           1 MOL       0.2441
     23 H2         18.1913   -0.7413   22.6372 H           1 MOL       0.0496
     24 H3         20.4864   -0.2464   21.9802 H           1 MOL       0.0512
     25 H4         17.3113    3.3648   22.7029 H           1 MOL       0.0468
     26 H5         22.1819    1.8072   21.4471 H           1 MOL       0.2115
     27 H6         23.7688    3.0064   20.9473 H           1 MOL       0.0343
     28 H7         24.4332    4.4614   21.6646 H           1 MOL       0.0343
     29 H8         24.0103    4.4311   19.9436 H           1 MOL       0.0343
     30 H9         17.6425    5.1058   21.1815 H           1 MOL       0.0394
     31 H10        18.0138    6.7817   21.2984 H           1 MOL       0.0394
     32 H11        17.8255    5.8410   22.7972 H           1 MOL       0.0394
     33 H12        23.9537    6.7227   20.8172 H           1 MOL       0.0271
     34 H13        23.4258    8.9582   21.0143 H           1 MOL       0.1097
     35 H14        21.3663    9.6150   21.7021 H           1 MOL       0.2459
@<TRIPOS>BOND
     1     1     2   1
     2     1     3  ar
     3     1     7  ar
     4     3     4  ar
     5     4     5  ar
     6     5     6  ar
     7     5     8   1
     8     6     7  ar
     9     6    10   1
    10     8     9   1
    11     9    10  ar
    12     9    11  ar
    13    10    15  ar
    14    11    12   1
    15    11    13  ar
    16    13    14  ar
    17    13    17   1
    18    14    15  ar
    19    14    20   1
    20    15    16   1
    21    17    18   2
    22    18    19  am
    23    19    20  am
    24    20    21   2
    25     2    22   1
    26     3    23   1
    27     4    24   1
    28     7    25   1
    29     8    26   1
    30    12    27   1
    31    12    28   1
    32    12    29   1
    33    16    30   1
    34    16    31   1
    35    16    32   1
    36    17    33   1
    37    18    34   1
    38    19    35   1
@<TRIPOS>SUBSTRUCTURE
     1  MOL      1

