@<TRIPOS>MOLECULE
3owj_ligand_015
    35    38
SMALL
GAST_HUCK
****
This file was generated by PARSER (from files_GN.cpp)

@<TRIPOS>ATOM
      1 C1         23.1513    5.9790   10.2319 C.ar        1 MOL       0.0721
      2 O1         23.5086    5.1479    9.2259 O.3         1 MOL      -0.3416
      3 C2         23.0442    7.3735   10.0296 C.ar        1 MOL      -0.0447
      4 C3         22.7272    8.2231   11.1086 C.ar        1 MOL      -0.0486
      5 C4         22.5083    7.6482   12.3715 C.ar        1 MOL       0.0523
      6 C5         22.5728    6.2667   12.5799 C.ar        1 MOL      -0.0192
      7 C6         22.9113    5.4224   11.5026 C.ar        1 MOL      -0.0435
      8 N7         22.2404    8.2459   13.5365 N.pl3       1 MOL      -0.2844
      9 C8         22.1316    7.3125   14.5012 C.ar        1 MOL       0.0555
     10 C9         22.3085    6.0437   13.9383 C.ar        1 MOL      -0.0101
     11 C10        21.8734    7.4998   15.8732 C.ar        1 MOL      -0.0320
     12 C11        21.6588    8.8789   16.3955 C.3         1 MOL      -0.0404
     13 C12        21.8610    6.3427   16.7094 C.ar        1 MOL      -0.0484
     14 C13        22.0682    5.0321   16.1488 C.ar        1 MOL       0.0334
     15 C14        22.1911    4.8734   14.7307 C.ar        1 MOL      -0.0423
     16 C15        22.0889    3.5538   14.0455 C.3         1 MOL      -0.0337
     17 C16        21.6409    6.4511   18.0974 C.2         1 MOL      -0.0576
     18 C17        21.6802    5.3629   18.8828 C.2         1 MOL       0.0437
     19 N18        21.9575    4.1666   18.3707 N.am        1 MOL      -0.2303
     20 C19        22.1571    3.9623   17.0746 C.2         1 MOL       0.2129
     21 O19        22.5254    2.8322   16.7935 O.2         1 MOL      -0.4002
     22 H1         24.2512    5.5947    8.7765 H           1 MOL       0.2441
     23 H2         23.2084    7.7701    9.1012 H           1 MOL       0.0496
     24 H3         22.6709    9.2362   10.9798 H           1 MOL       0.0512
     25 H4         23.0231    4.4193   11.6303 H           1 MOL       0.0468
     26 H5         22.1568    9.2036   13.6626 H           1 MOL       0.2115
     27 H6         21.7090    9.6470   15.6232 H           1 MOL       0.0343
     28 H7         22.4230    9.1109   17.1389 H           1 MOL       0.0343
     29 H8         20.6728    8.9459   16.8579 H           1 MOL       0.0343
     30 H9         21.4931    3.6414   13.1374 H           1 MOL       0.0394
     31 H10        21.5644    2.8095   14.6384 H           1 MOL       0.0394
     32 H11        23.0843    3.1798   13.7980 H           1 MOL       0.0394
     33 H12        21.4484    7.3245   18.5269 H           1 MOL       0.0271
     34 H13        21.5253    5.4431   19.8602 H           1 MOL       0.1097
     35 H14        22.0437    3.4132   18.9771 H           1 MOL       0.2459
@<TRIPOS>BOND
     1     1     2   1
     2     1     3  ar
     3     1     7  ar
     4     3     4  ar
     5     4     5  ar
     6     5     6  ar
     7     5     8   1
     8     6     7  ar
     9     6    10   1
    10     8     9   1
    11     9    10  ar
    12     9    11  ar
    13    10    15  ar
    14    11    12   1
    15    11    13  ar
    16    13    14  ar
    17    13    17   1
    18    14    15  ar
    19    14    20   1
    20    15    16   1
    21    17    18   2
    22    18    19  am
    23    19    20  am
    24    20    21   2
    25     2    22   1
    26     3    23   1
    27     4    24   1
    28     7    25   1
    29     8    26   1
    30    12    27   1
    31    12    28   1
    32    12    29   1
    33    16    30   1
    34    16    31   1
    35    16    32   1
    36    17    33   1
    37    18    34   1
    38    19    35   1
@<TRIPOS>SUBSTRUCTURE
     1  MOL      1

