@<TRIPOS>MOLECULE
3owj_ligand_043
    35    38
SMALL
GAST_HUCK
****
This file was generated by PARSER (from files_GN.cpp)

@<TRIPOS>ATOM
      1 C1         23.1385    3.4806   21.7189 C.ar        1 MOL       0.0721
      2 O1         23.5950    2.2218   21.9085 O.3         1 MOL      -0.3416
      3 C2         23.9545    4.4829   21.1380 C.ar        1 MOL      -0.0447
      4 C3         23.4686    5.7966   21.0045 C.ar        1 MOL      -0.0486
      5 C4         22.1647    6.0776   21.4403 C.ar        1 MOL       0.0523
      6 C5         21.3289    5.0967   21.9863 C.ar        1 MOL      -0.0192
      7 C6         21.8298    3.7871   22.1462 C.ar        1 MOL      -0.0435
      8 N7         21.5133    7.2461   21.4326 N.pl3       1 MOL      -0.2844
      9 C8         20.2863    7.0773   21.9563 C.ar        1 MOL       0.0555
     10 C9         20.1149    5.7317   22.3002 C.ar        1 MOL      -0.0101
     11 C10        19.2793    8.0457   22.1472 C.ar        1 MOL      -0.0320
     12 C11        19.5233    9.4546   21.7245 C.3         1 MOL      -0.0404
     13 C12        18.0712    7.6272   22.7819 C.ar        1 MOL      -0.0484
     14 C13        17.8903    6.2528   23.1732 C.ar        1 MOL       0.0334
     15 C14        18.8786    5.2751   22.8251 C.ar        1 MOL      -0.0423
     16 C15        18.6371    3.8067   22.8950 C.3         1 MOL      -0.0337
     17 C16        17.0298    8.5416   23.0407 C.2         1 MOL      -0.0576
     18 C17        15.9205    8.1484   23.6866 C.2         1 MOL       0.0437
     19 N18        15.7996    6.8976   24.1289 N.am        1 MOL      -0.2303
     20 C19        16.7211    5.9634   23.9211 C.2         1 MOL       0.2129
     21 O19        16.5331    4.9090   24.5128 O.2         1 MOL      -0.4002
     22 H1         23.7637    1.8861   20.9979 H           1 MOL       0.2441
     23 H2         24.9087    4.2695   20.8433 H           1 MOL       0.0496
     24 H3         24.0572    6.5351   20.6066 H           1 MOL       0.0512
     25 H4         21.2826    3.0597   22.6050 H           1 MOL       0.0468
     26 H5         21.8816    8.0809   21.1067 H           1 MOL       0.2115
     27 H6         20.4975    9.6045   21.2576 H           1 MOL       0.0343
     28 H7         19.4688   10.1151   22.5921 H           1 MOL       0.0343
     29 H8         18.7662    9.7574   21.0024 H           1 MOL       0.0343
     30 H9         19.0561    3.3088   22.0184 H           1 MOL       0.0394
     31 H10        17.5856    3.5438   22.8806 H           1 MOL       0.0394
     32 H11        19.0922    3.4031   23.7971 H           1 MOL       0.0394
     33 H12        17.0885    9.4908   22.7581 H           1 MOL       0.0271
     34 H13        15.1921    8.7981   23.8731 H           1 MOL       0.1097
     35 H14        15.0146    6.6703   24.6529 H           1 MOL       0.2459
@<TRIPOS>BOND
     1     1     2   1
     2     1     3  ar
     3     1     7  ar
     4     3     4  ar
     5     4     5  ar
     6     5     6  ar
     7     5     8   1
     8     6     7  ar
     9     6    10   1
    10     8     9   1
    11     9    10  ar
    12     9    11  ar
    13    10    15  ar
    14    11    12   1
    15    11    13  ar
    16    13    14  ar
    17    13    17   1
    18    14    15  ar
    19    14    20   1
    20    15    16   1
    21    17    18   2
    22    18    19  am
    23    19    20  am
    24    20    21   2
    25     2    22   1
    26     3    23   1
    27     4    24   1
    28     7    25   1
    29     8    26   1
    30    12    27   1
    31    12    28   1
    32    12    29   1
    33    16    30   1
    34    16    31   1
    35    16    32   1
    36    17    33   1
    37    18    34   1
    38    19    35   1
@<TRIPOS>SUBSTRUCTURE
     1  MOL      1

