@<TRIPOS>MOLECULE
3owj_ligand_057
    35    38
SMALL
GAST_HUCK
****
This file was generated by PARSER (from files_GN.cpp)

@<TRIPOS>ATOM
      1 C1         20.8760   -2.0533   21.0469 C.ar        1 MOL       0.0721
      2 O1         21.7210   -3.1070   21.1351 O.3         1 MOL      -0.3416
      3 C2         19.4910   -2.2699   20.8393 C.ar        1 MOL      -0.0447
      4 C3         18.6115   -1.1731   20.7508 C.ar        1 MOL      -0.0486
      5 C4         19.1342    0.1221   20.9000 C.ar        1 MOL       0.0523
      6 C5         20.4928    0.3567   21.1412 C.ar        1 MOL      -0.0192
      7 C6         21.3749   -0.7472   21.1936 C.ar        1 MOL      -0.0435
      8 N7         18.4904    1.2906   20.8206 N.pl3       1 MOL      -0.2844
      9 C8         19.3735    2.2925   20.9987 C.ar        1 MOL       0.0555
     10 C9         20.6441    1.7522   21.2327 C.ar        1 MOL      -0.0101
     11 C10        19.1389    3.6853   20.9625 C.ar        1 MOL      -0.0320
     12 C11        17.7577    4.1863   20.7327 C.3         1 MOL      -0.0404
     13 C12        20.2555    4.5541   21.1256 C.ar        1 MOL      -0.0484
     14 C13        21.5697    4.0177   21.3421 C.ar        1 MOL       0.0334
     15 C14        21.7471    2.6032   21.5035 C.ar        1 MOL      -0.0423
     16 C15        22.9902    1.9952   22.0439 C.3         1 MOL      -0.0337
     17 C16        20.1004    5.9567   21.0815 C.2         1 MOL      -0.0576
     18 C17        21.1670    6.7650   21.1853 C.2         1 MOL       0.0437
     19 N18        22.3919    6.2619   21.2920 N.am        1 MOL      -0.2303
     20 C19        22.6292    4.9564   21.3532 C.2         1 MOL       0.2129
     21 O19        23.8110    4.6656   21.2787 O.2         1 MOL      -0.4002
     22 H1         21.8741   -3.3644   20.2049 H           1 MOL       0.2441
     23 H2         19.1332   -3.2189   20.7422 H           1 MOL       0.0496
     24 H3         17.6145   -1.3176   20.5780 H           1 MOL       0.0512
     25 H4         22.3798   -0.6146   21.3253 H           1 MOL       0.0468
     26 H5         17.5366    1.3774   20.6437 H           1 MOL       0.2115
     27 H6         17.0335    3.3825   20.6126 H           1 MOL       0.0343
     28 H7         17.7208    4.7869   19.8236 H           1 MOL       0.0343
     29 H8         17.4563    4.8057   21.5799 H           1 MOL       0.0343
     30 H9         22.7487    1.1882   22.7321 H           1 MOL       0.0394
     31 H10        23.5937    2.6899   22.6221 H           1 MOL       0.0394
     32 H11        23.5897    1.5954   21.2311 H           1 MOL       0.0394
     33 H12        19.2102    6.3784   20.9741 H           1 MOL       0.0271
     34 H13        21.0558    7.7503   21.1424 H           1 MOL       0.1097
     35 H14        23.1493    6.8706   21.2877 H           1 MOL       0.2459
@<TRIPOS>BOND
     1     1     2   1
     2     1     3  ar
     3     1     7  ar
     4     3     4  ar
     5     4     5  ar
     6     5     6  ar
     7     5     8   1
     8     6     7  ar
     9     6    10   1
    10     8     9   1
    11     9    10  ar
    12     9    11  ar
    13    10    15  ar
    14    11    12   1
    15    11    13  ar
    16    13    14  ar
    17    13    17   1
    18    14    15  ar
    19    14    20   1
    20    15    16   1
    21    17    18   2
    22    18    19  am
    23    19    20  am
    24    20    21   2
    25     2    22   1
    26     3    23   1
    27     4    24   1
    28     7    25   1
    29     8    26   1
    30    12    27   1
    31    12    28   1
    32    12    29   1
    33    16    30   1
    34    16    31   1
    35    16    32   1
    36    17    33   1
    37    18    34   1
    38    19    35   1
@<TRIPOS>SUBSTRUCTURE
     1  MOL      1

