@<TRIPOS>MOLECULE
3owj_ligand_019
    35    38
SMALL
GAST_HUCK
****
This file was generated by PARSER (from files_GN.cpp)

@<TRIPOS>ATOM
      1 C1         22.7210    9.5833   19.7950 C.ar        1 MOL       0.0721
      2 O1         22.5751   10.8329   20.3014 O.3         1 MOL      -0.3416
      3 C2         22.7447    8.4878   20.6854 C.ar        1 MOL      -0.0447
      4 C3         22.8900    7.1776   20.1952 C.ar        1 MOL      -0.0486
      5 C4         22.9884    6.9851   18.8067 C.ar        1 MOL       0.0523
      6 C5         22.9489    8.0497   17.8990 C.ar        1 MOL      -0.0192
      7 C6         22.8300    9.3680   18.4019 C.ar        1 MOL      -0.0435
      8 N7         23.1606    5.8434   18.1339 N.pl3       1 MOL      -0.2844
      9 C8         23.2629    6.1080   16.8196 C.ar        1 MOL       0.0555
     10 C9         23.0979    7.4855   16.6190 C.ar        1 MOL      -0.0101
     11 C10        23.4989    5.2051   15.7633 C.ar        1 MOL      -0.0320
     12 C11        23.6635    3.7517   16.0551 C.3         1 MOL      -0.0404
     13 C12        23.6174    5.7415   14.4445 C.ar        1 MOL      -0.0484
     14 C13        23.4675    7.1552   14.2179 C.ar        1 MOL       0.0334
     15 C14        23.1001    8.0184   15.3032 C.ar        1 MOL      -0.0423
     16 C15        22.6094    9.4113   15.1056 C.3         1 MOL      -0.0337
     17 C16        23.8739    4.9057   13.3364 C.2         1 MOL      -0.0576
     18 C17        24.0196    5.4253   12.1064 C.2         1 MOL       0.0437
     19 N18        23.9686    6.7426   11.9176 N.am        1 MOL      -0.2303
     20 C19        23.7231    7.6039   12.8971 C.2         1 MOL       0.2129
     21 O19        23.8686    8.7777   12.5881 O.2         1 MOL      -0.4002
     22 H1         23.3930   11.3218   20.0494 H           1 MOL       0.2441
     23 H2         22.6681    8.6453   21.6925 H           1 MOL       0.0496
     24 H3         22.9360    6.3837   20.8378 H           1 MOL       0.0512
     25 H4         22.8410   10.1733   17.7771 H           1 MOL       0.0468
     26 H5         23.2316    4.9648   18.5418 H           1 MOL       0.2115
     27 H6         23.5782    3.5082   17.1145 H           1 MOL       0.0343
     28 H7         24.6504    3.4247   15.7242 H           1 MOL       0.0343
     29 H8         22.8992    3.1810   15.5247 H           1 MOL       0.0343
     30 H9         21.7725    9.6165   15.7745 H           1 MOL       0.0394
     31 H10        22.2117    9.5815   14.1079 H           1 MOL       0.0394
     32 H11        23.4148   10.1218   15.2990 H           1 MOL       0.0394
     33 H12        23.9434    3.9206   13.4301 H           1 MOL       0.0271
     34 H13        24.1953    4.8334   11.3274 H           1 MOL       0.1097
     35 H14        24.1553    7.0866   11.0290 H           1 MOL       0.2459
@<TRIPOS>BOND
     1     1     2   1
     2     1     3  ar
     3     1     7  ar
     4     3     4  ar
     5     4     5  ar
     6     5     6  ar
     7     5     8   1
     8     6     7  ar
     9     6    10   1
    10     8     9   1
    11     9    10  ar
    12     9    11  ar
    13    10    15  ar
    14    11    12   1
    15    11    13  ar
    16    13    14  ar
    17    13    17   1
    18    14    15  ar
    19    14    20   1
    20    15    16   1
    21    17    18   2
    22    18    19  am
    23    19    20  am
    24    20    21   2
    25     2    22   1
    26     3    23   1
    27     4    24   1
    28     7    25   1
    29     8    26   1
    30    12    27   1
    31    12    28   1
    32    12    29   1
    33    16    30   1
    34    16    31   1
    35    16    32   1
    36    17    33   1
    37    18    34   1
    38    19    35   1
@<TRIPOS>SUBSTRUCTURE
     1  MOL      1

