@<TRIPOS>MOLECULE
3owj_ligand_051
    35    38
SMALL
GAST_HUCK
****
This file was generated by PARSER (from files_GN.cpp)

@<TRIPOS>ATOM
      1 C1         22.9493    6.9847   18.4333 C.ar        1 MOL       0.0721
      2 O1         22.8560    5.6510   18.2191 O.3         1 MOL      -0.3416
      3 C2         22.8200    7.5022   19.7394 C.ar        1 MOL      -0.0447
      4 C3         22.8892    8.8902   19.9633 C.ar        1 MOL      -0.0486
      5 C4         23.0931    9.7368   18.8608 C.ar        1 MOL       0.0523
      6 C5         23.2577    9.2457   17.5623 C.ar        1 MOL      -0.0192
      7 C6         23.1717    7.8522   17.3416 C.ar        1 MOL      -0.0435
      8 N7         23.1506   11.0719   18.8321 N.pl3       1 MOL      -0.2844
      9 C8         23.3430   11.4832   17.5655 C.ar        1 MOL       0.0555
     10 C9         23.4410   10.3624   16.7296 C.ar        1 MOL      -0.0101
     11 C10        23.4515   12.8025   17.0813 C.ar        1 MOL      -0.0320
     12 C11        23.3711   13.9477   18.0324 C.3         1 MOL      -0.0404
     13 C12        23.6013   12.9821   15.6736 C.ar        1 MOL      -0.0484
     14 C13        23.6668   11.8437   14.7952 C.ar        1 MOL       0.0334
     15 C14        23.6965   10.5194   15.3430 C.ar        1 MOL      -0.0423
     16 C15        24.0855    9.3203   14.5469 C.3         1 MOL      -0.0337
     17 C16        23.6937   14.2716   15.1089 C.2         1 MOL      -0.0576
     18 C17        23.7820   14.4311   13.7794 C.2         1 MOL       0.0437
     19 N18        23.7482   13.3768   12.9669 N.am        1 MOL      -0.2303
     20 C19        23.6818   12.1264   13.4068 C.2         1 MOL       0.2129
     21 O19        23.4972   11.2912   12.5334 O.2         1 MOL      -0.4002
     22 H1         21.8939    5.4768   18.1517 H           1 MOL       0.2441
     23 H2         22.6635    6.8702   20.5276 H           1 MOL       0.0496
     24 H3         22.7865    9.2752   20.9039 H           1 MOL       0.0512
     25 H4         23.2366    7.4603   16.4052 H           1 MOL       0.0468
     26 H5         23.0511   11.6485   19.6051 H           1 MOL       0.2115
     27 H6         23.2270   13.6414   19.0681 H           1 MOL       0.0343
     28 H7         22.5315   14.5909   17.7644 H           1 MOL       0.0343
     29 H8         24.2961   14.5243   17.9858 H           1 MOL       0.0343
     30 H9         24.7291    8.6664   15.1343 H           1 MOL       0.0394
     31 H10        24.6803    9.5660   13.6695 H           1 MOL       0.0394
     32 H11        23.1941    8.7730   14.2348 H           1 MOL       0.0394
     33 H12        23.6986   15.0884   15.6723 H           1 MOL       0.0271
     34 H13        23.8402   15.3404   13.3845 H           1 MOL       0.1097
     35 H14        23.7419   13.5331   12.0089 H           1 MOL       0.2459
@<TRIPOS>BOND
     1     1     2   1
     2     1     3  ar
     3     1     7  ar
     4     3     4  ar
     5     4     5  ar
     6     5     6  ar
     7     5     8   1
     8     6     7  ar
     9     6    10   1
    10     8     9   1
    11     9    10  ar
    12     9    11  ar
    13    10    15  ar
    14    11    12   1
    15    11    13  ar
    16    13    14  ar
    17    13    17   1
    18    14    15  ar
    19    14    20   1
    20    15    16   1
    21    17    18   2
    22    18    19  am
    23    19    20  am
    24    20    21   2
    25     2    22   1
    26     3    23   1
    27     4    24   1
    28     7    25   1
    29     8    26   1
    30    12    27   1
    31    12    28   1
    32    12    29   1
    33    16    30   1
    34    16    31   1
    35    16    32   1
    36    17    33   1
    37    18    34   1
    38    19    35   1
@<TRIPOS>SUBSTRUCTURE
     1  MOL      1

