@<TRIPOS>MOLECULE
3owj_ligand_038
    35    38
SMALL
GAST_HUCK
****
This file was generated by PARSER (from files_GN.cpp)

@<TRIPOS>ATOM
      1 C1         17.9417    7.0653   24.7520 C.ar        1 MOL       0.0721
      2 O1         16.8932    7.6048   25.4170 O.3         1 MOL      -0.3416
      3 C2         18.3522    5.7464   25.0433 C.ar        1 MOL      -0.0447
      4 C3         19.4539    5.1827   24.3720 C.ar        1 MOL      -0.0486
      5 C4         20.1169    5.9573   23.4062 C.ar        1 MOL       0.0523
      6 C5         19.7186    7.2599   23.0870 C.ar        1 MOL      -0.0192
      7 C6         18.6262    7.8281   23.7804 C.ar        1 MOL      -0.0435
      8 N7         21.1876    5.6378   22.6744 N.pl3       1 MOL      -0.2844
      9 C8         21.5289    6.6843   21.9021 C.ar        1 MOL       0.0555
     10 C9         20.6067    7.7198   22.1004 C.ar        1 MOL      -0.0101
     11 C10        22.6117    6.7868   21.0066 C.ar        1 MOL      -0.0320
     12 C11        23.5410    5.6318   20.8401 C.3         1 MOL      -0.0404
     13 C12        22.7807    8.0248   20.3174 C.ar        1 MOL      -0.0484
     14 C13        21.8549    9.1092   20.5199 C.ar        1 MOL       0.0334
     15 C14        20.6976    8.9162   21.3431 C.ar        1 MOL      -0.0423
     16 C15        19.5386    9.8526   21.3583 C.3         1 MOL      -0.0337
     17 C16        23.8464    8.2133   19.4157 C.2         1 MOL      -0.0576
     18 C17        24.0204    9.3893   18.7943 C.2         1 MOL       0.0437
     19 N18        23.2187   10.4190   19.0598 N.am        1 MOL      -0.2303
     20 C19        22.1822   10.3346   19.8870 C.2         1 MOL       0.2129
     21 O19        21.6566   11.4055   20.1506 O.2         1 MOL      -0.4002
     22 H1         17.2941    8.0567   26.1887 H           1 MOL       0.2441
     23 H2         17.8566    5.2002   25.7516 H           1 MOL       0.0496
     24 H3         19.7708    4.2354   24.5899 H           1 MOL       0.0512
     25 H4         18.3342    8.7887   23.6109 H           1 MOL       0.0468
     26 H5         21.6465    4.7853   22.7062 H           1 MOL       0.2115
     27 H6         23.2717    4.7680   21.4485 H           1 MOL       0.0343
     28 H7         24.5524    5.9300   21.1250 H           1 MOL       0.0343
     29 H8         23.5406    5.3093   19.7973 H           1 MOL       0.0343
     30 H9         18.6010    9.2959   21.3551 H           1 MOL       0.0394
     31 H10        19.4862   10.4797   20.4712 H           1 MOL       0.0394
     32 H11        19.5843   10.4878   22.2437 H           1 MOL       0.0394
     33 H12        24.4904    7.4888   19.2180 H           1 MOL       0.0271
     34 H13        24.7780    9.5185   18.1652 H           1 MOL       0.1097
     35 H14        23.4272   11.2789   18.6603 H           1 MOL       0.2459
@<TRIPOS>BOND
     1     1     2   1
     2     1     3  ar
     3     1     7  ar
     4     3     4  ar
     5     4     5  ar
     6     5     6  ar
     7     5     8   1
     8     6     7  ar
     9     6    10   1
    10     8     9   1
    11     9    10  ar
    12     9    11  ar
    13    10    15  ar
    14    11    12   1
    15    11    13  ar
    16    13    14  ar
    17    13    17   1
    18    14    15  ar
    19    14    20   1
    20    15    16   1
    21    17    18   2
    22    18    19  am
    23    19    20  am
    24    20    21   2
    25     2    22   1
    26     3    23   1
    27     4    24   1
    28     7    25   1
    29     8    26   1
    30    12    27   1
    31    12    28   1
    32    12    29   1
    33    16    30   1
    34    16    31   1
    35    16    32   1
    36    17    33   1
    37    18    34   1
    38    19    35   1
@<TRIPOS>SUBSTRUCTURE
     1  MOL      1

