@<TRIPOS>MOLECULE
3owj_ligand_000
    35    38
SMALL
GAST_HUCK
****
This file was generated by PARSER (from files_GN.cpp)

@<TRIPOS>ATOM
      1 C1         23.6342   -3.6123   19.9200 C.ar        1 MOL       0.0721
      2 O1         23.6608   -4.8996   19.5020 O.3         1 MOL      -0.3416
      3 C2         24.8357   -2.8749   20.0051 C.ar        1 MOL      -0.0447
      4 C3         24.8164   -1.5313   20.4298 C.ar        1 MOL      -0.0486
      5 C4         23.5780   -0.9452   20.7411 C.ar        1 MOL       0.0523
      6 C5         22.3736   -1.6484   20.6360 C.ar        1 MOL      -0.0192
      7 C6         22.4021   -3.0061   20.2459 C.ar        1 MOL      -0.0435
      8 N7         23.3236    0.2893   21.1840 N.pl3       1 MOL      -0.2844
      9 C8         21.9987    0.4293   21.3749 C.ar        1 MOL       0.0555
     10 C9         21.3531   -0.7594   21.0145 C.ar        1 MOL      -0.0101
     11 C10        21.2978    1.5570   21.8439 C.ar        1 MOL      -0.0320
     12 C11        22.0473    2.8008   22.1705 C.3         1 MOL      -0.0404
     13 C12        19.8873    1.4369   22.0225 C.ar        1 MOL      -0.0484
     14 C13        19.2124    0.2118   21.6853 C.ar        1 MOL       0.0334
     15 C14        19.9391   -0.8573   21.0688 C.ar        1 MOL      -0.0423
     16 C15        19.2825   -2.0046   20.3847 C.3         1 MOL      -0.0337
     17 C16        19.1243    2.5045   22.5390 C.2         1 MOL      -0.0576
     18 C17        17.8092    2.3568   22.7664 C.2         1 MOL       0.0437
     19 N18        17.2062    1.1938   22.5293 N.am        1 MOL      -0.2303
     20 C19        17.8400    0.1399   22.0279 C.2         1 MOL       0.2129
     21 O19        17.1888   -0.8935   22.0386 O.2         1 MOL      -0.4002
     22 H1         23.7711   -4.8205   18.5317 H           1 MOL       0.2441
     23 H2         25.7255   -3.3167   19.7650 H           1 MOL       0.0496
     24 H3         25.6843   -0.9946   20.5094 H           1 MOL       0.0512
     25 H4         21.5502   -3.5629   20.2054 H           1 MOL       0.0468
     26 H5         23.9974    0.9642   21.3548 H           1 MOL       0.2115
     27 H6         23.1222    2.7184   22.0074 H           1 MOL       0.0343
     28 H7         21.8936    3.0457   23.2212 H           1 MOL       0.0343
     29 H8         21.6812    3.6222   21.5528 H           1 MOL       0.0343
     30 H9         19.7853   -2.2123   19.4404 H           1 MOL       0.0394
     31 H10        18.2512   -1.8018   20.1067 H           1 MOL       0.0394
     32 H11        19.3150   -2.8886   21.0220 H           1 MOL       0.0394
     33 H12        19.5347    3.3817   22.7543 H           1 MOL       0.0271
     34 H13        17.2804    3.1035   23.1510 H           1 MOL       0.1097
     35 H14        16.2713    1.1026   22.7730 H           1 MOL       0.2459
@<TRIPOS>BOND
     1     1     2   1
     2     1     3  ar
     3     1     7  ar
     4     3     4  ar
     5     4     5  ar
     6     5     6  ar
     7     5     8   1
     8     6     7  ar
     9     6    10   1
    10     8     9   1
    11     9    10  ar
    12     9    11  ar
    13    10    15  ar
    14    11    12   1
    15    11    13  ar
    16    13    14  ar
    17    13    17   1
    18    14    15  ar
    19    14    20   1
    20    15    16   1
    21    17    18   2
    22    18    19  am
    23    19    20  am
    24    20    21   2
    25     2    22   1
    26     3    23   1
    27     4    24   1
    28     7    25   1
    29     8    26   1
    30    12    27   1
    31    12    28   1
    32    12    29   1
    33    16    30   1
    34    16    31   1
    35    16    32   1
    36    17    33   1
    37    18    34   1
    38    19    35   1
@<TRIPOS>SUBSTRUCTURE
     1  MOL      1

