@<TRIPOS>MOLECULE
3owj_ligand_006
    35    38
SMALL
GAST_HUCK
****
This file was generated by PARSER (from files_GN.cpp)

@<TRIPOS>ATOM
      1 C1         20.1280    5.8599   23.0671 C.ar        1 MOL       0.0721
      2 O1         20.8048    7.0285   23.1521 O.3         1 MOL      -0.3416
      3 C2         18.8002    5.8083   23.5419 C.ar        1 MOL      -0.0447
      4 C3         18.0693    4.6058   23.4790 C.ar        1 MOL      -0.0486
      5 C4         18.6846    3.4757   22.9138 C.ar        1 MOL       0.0523
      6 C5         19.9865    3.5085   22.4040 C.ar        1 MOL      -0.0192
      7 C6         20.7256    4.7113   22.5017 C.ar        1 MOL      -0.0435
      8 N7         18.1914    2.2408   22.7793 N.pl3       1 MOL      -0.2844
      9 C8         19.1143    1.4527   22.1999 C.ar        1 MOL       0.0555
     10 C9         20.2563    2.2161   21.9178 C.ar        1 MOL      -0.0101
     11 C10        19.0135    0.0817   21.8901 C.ar        1 MOL      -0.0320
     12 C11        17.7484   -0.6503   22.1892 C.3         1 MOL      -0.0404
     13 C12        20.1594   -0.5533   21.3235 C.ar        1 MOL      -0.0484
     14 C13        21.3528    0.2044   21.0541 C.ar        1 MOL       0.0334
     15 C14        21.3597    1.6250   21.2518 C.ar        1 MOL      -0.0423
     16 C15        22.4152    2.5181   20.6992 C.3         1 MOL      -0.0337
     17 C16        20.1546   -1.9314   21.0216 C.2         1 MOL      -0.0576
     18 C17        21.2616   -2.5310   20.5562 C.2         1 MOL       0.0437
     19 N18        22.3889   -1.8417   20.3914 N.am        1 MOL      -0.2303
     20 C19        22.4819   -0.5388   20.6290 C.2         1 MOL       0.2129
     21 O19        23.6213   -0.0991   20.5981 O.2         1 MOL      -0.4002
     22 H1         21.6559    6.8061   23.6063 H           1 MOL       0.2441
     23 H2         18.3620    6.6420   23.9421 H           1 MOL       0.0496
     24 H3         17.1114    4.5546   23.8420 H           1 MOL       0.0512
     25 H4         21.6915    4.7637   22.1836 H           1 MOL       0.0468
     26 H5         17.3079    1.9639   23.0716 H           1 MOL       0.2115
     27 H6         16.9796   -0.0203   22.6380 H           1 MOL       0.0343
     28 H7         17.9494   -1.4669   22.8859 H           1 MOL       0.0343
     29 H8         17.3378   -1.0579   21.2663 H           1 MOL       0.0343
     30 H9         21.9711    3.4259   20.2898 H           1 MOL       0.0394
     31 H10        22.9482    2.0730   19.8633 H           1 MOL       0.0394
     32 H11        23.1281    2.7819   21.4826 H           1 MOL       0.0394
     33 H12        19.3458   -2.4900   21.1490 H           1 MOL       0.0271
     34 H13        21.2617   -3.5052   20.3649 H           1 MOL       0.1097
     35 H14        23.1870   -2.3239   20.1224 H           1 MOL       0.2459
@<TRIPOS>BOND
     1     1     2   1
     2     1     3  ar
     3     1     7  ar
     4     3     4  ar
     5     4     5  ar
     6     5     6  ar
     7     5     8   1
     8     6     7  ar
     9     6    10   1
    10     8     9   1
    11     9    10  ar
    12     9    11  ar
    13    10    15  ar
    14    11    12   1
    15    11    13  ar
    16    13    14  ar
    17    13    17   1
    18    14    15  ar
    19    14    20   1
    20    15    16   1
    21    17    18   2
    22    18    19  am
    23    19    20  am
    24    20    21   2
    25     2    22   1
    26     3    23   1
    27     4    24   1
    28     7    25   1
    29     8    26   1
    30    12    27   1
    31    12    28   1
    32    12    29   1
    33    16    30   1
    34    16    31   1
    35    16    32   1
    36    17    33   1
    37    18    34   1
    38    19    35   1
@<TRIPOS>SUBSTRUCTURE
     1  MOL      1

