@<TRIPOS>MOLECULE
3owj_ligand_017
    35    38
SMALL
GAST_HUCK
****
This file was generated by PARSER (from files_GN.cpp)

@<TRIPOS>ATOM
      1 C1         24.1446   15.4194   15.3812 C.ar        1 MOL       0.0721
      2 O1         24.4441   16.6375   14.8762 O.3         1 MOL      -0.3416
      3 C2         24.0516   15.2439   16.7782 C.ar        1 MOL      -0.0447
      4 C3         23.8007   13.9670   17.3164 C.ar        1 MOL      -0.0486
      5 C4         23.6486   12.8845   16.4340 C.ar        1 MOL       0.0523
      6 C5         23.7180   13.0399   15.0458 C.ar        1 MOL      -0.0192
      7 C6         23.9840   14.3199   14.5110 C.ar        1 MOL      -0.0435
      8 N7         23.4566   11.5924   16.7190 N.pl3       1 MOL      -0.2844
      9 C8         23.4134   10.8855   15.5742 C.ar        1 MOL       0.0555
     10 C9         23.5435   11.7626   14.4900 C.ar        1 MOL      -0.0101
     11 C10        23.2607    9.4932   15.4097 C.ar        1 MOL      -0.0320
     12 C11        23.0601    8.6296   16.6087 C.3         1 MOL      -0.0404
     13 C12        23.3318    8.9720   14.0826 C.ar        1 MOL      -0.0484
     14 C13        23.4889    9.8574   12.9580 C.ar        1 MOL       0.0334
     15 C14        23.4788   11.2761   13.1601 C.ar        1 MOL      -0.0423
     16 C15        23.3000   12.2534   12.0518 C.3         1 MOL      -0.0337
     17 C16        23.2479    7.5859   13.8373 C.2         1 MOL      -0.0576
     18 C17        23.3699    7.1034   12.5903 C.2         1 MOL       0.0437
     19 N18        23.5966    7.9218   11.5639 N.am        1 MOL      -0.2303
     20 C19        23.6679    9.2424   11.6934 C.2         1 MOL       0.2129
     21 O19        24.0317    9.8315   10.6862 O.2         1 MOL      -0.4002
     22 H1         23.5968   16.9783   14.5091 H           1 MOL       0.2441
     23 H2         24.1803   16.0418   17.4039 H           1 MOL       0.0496
     24 H3         23.7433   13.8291   18.3268 H           1 MOL       0.0512
     25 H4         24.1047   14.4615   13.5096 H           1 MOL       0.0468
     26 H5         23.3910   11.2258   17.6146 H           1 MOL       0.2115
     27 H6         23.0381    9.1879   17.5443 H           1 MOL       0.0343
     28 H7         23.8683    7.9016   16.6808 H           1 MOL       0.0343
     29 H8         22.1097    8.1011   16.5218 H           1 MOL       0.0343
     30 H9         22.6552   13.0756   12.3627 H           1 MOL       0.0394
     31 H10        22.7920   11.8165   11.1955 H           1 MOL       0.0394
     32 H11        24.2700   12.6436   11.7392 H           1 MOL       0.0394
     33 H12        23.1021    6.9360   14.5724 H           1 MOL       0.0271
     34 H13        23.3216    6.1258   12.4227 H           1 MOL       0.1097
     35 H14        23.7518    7.5305   10.6889 H           1 MOL       0.2459
@<TRIPOS>BOND
     1     1     2   1
     2     1     3  ar
     3     1     7  ar
     4     3     4  ar
     5     4     5  ar
     6     5     6  ar
     7     5     8   1
     8     6     7  ar
     9     6    10   1
    10     8     9   1
    11     9    10  ar
    12     9    11  ar
    13    10    15  ar
    14    11    12   1
    15    11    13  ar
    16    13    14  ar
    17    13    17   1
    18    14    15  ar
    19    14    20   1
    20    15    16   1
    21    17    18   2
    22    18    19  am
    23    19    20  am
    24    20    21   2
    25     2    22   1
    26     3    23   1
    27     4    24   1
    28     7    25   1
    29     8    26   1
    30    12    27   1
    31    12    28   1
    32    12    29   1
    33    16    30   1
    34    16    31   1
    35    16    32   1
    36    17    33   1
    37    18    34   1
    38    19    35   1
@<TRIPOS>SUBSTRUCTURE
     1  MOL      1

