@<TRIPOS>MOLECULE
3owj_ligand_026
    35    38
SMALL
GAST_HUCK
****
This file was generated by PARSER (from files_GN.cpp)

@<TRIPOS>ATOM
      1 C1         22.8844    9.9981   11.8213 C.ar        1 MOL       0.0721
      2 O1         23.0556   10.0026   10.4720 O.3         1 MOL      -0.3416
      3 C2         22.3903    8.8409   12.4622 C.ar        1 MOL      -0.0447
      4 C3         22.1762    8.8403   13.8544 C.ar        1 MOL      -0.0486
      5 C4         22.4941    9.9993   14.5837 C.ar        1 MOL       0.0523
      6 C5         23.0112   11.1453   13.9771 C.ar        1 MOL      -0.0192
      7 C6         23.1825   11.1541   12.5778 C.ar        1 MOL      -0.0435
      8 N7         22.3614   10.2211   15.8955 N.pl3       1 MOL      -0.2844
      9 C8         22.7710   11.4723   16.1789 C.ar        1 MOL       0.0555
     10 C9         23.2129   12.0861   15.0002 C.ar        1 MOL      -0.0101
     11 C10        22.7873   12.1213   17.4300 C.ar        1 MOL      -0.0320
     12 C11        22.3127   11.3924   18.6410 C.3         1 MOL      -0.0404
     13 C12        23.2244   13.4787   17.4664 C.ar        1 MOL      -0.0484
     14 C13        23.6604   14.1396   16.2621 C.ar        1 MOL       0.0334
     15 C14        23.7462   13.4015   15.0340 C.ar        1 MOL      -0.0423
     16 C15        24.4189   13.9132   13.8075 C.3         1 MOL      -0.0337
     17 C16        23.2343   14.2075   18.6744 C.2         1 MOL      -0.0576
     18 C17        23.6017   15.4985   18.6909 C.2         1 MOL       0.0437
     19 N18        23.9215   16.1282   17.5623 N.am        1 MOL      -0.2303
     20 C19        23.9461   15.5242   16.3807 C.2         1 MOL       0.2129
     21 O19        24.0789   16.2832   15.4345 O.2         1 MOL      -0.4002
     22 H1         22.6100   10.8194   10.1577 H           1 MOL       0.2441
     23 H2         22.1693    8.0069   11.9182 H           1 MOL       0.0496
     24 H3         21.7929    8.0152   14.3252 H           1 MOL       0.0512
     25 H4         23.5003   11.9891   12.0853 H           1 MOL       0.0468
     26 H5         22.0187    9.5742   16.5349 H           1 MOL       0.2115
     27 H6         22.0068   10.3654   18.4360 H           1 MOL       0.0343
     28 H7         21.4505   11.9112   19.0634 H           1 MOL       0.0343
     29 H8         23.1090   11.3524   19.3843 H           1 MOL       0.0343
     30 H9         25.0432   13.1302   13.3714 H           1 MOL       0.0394
     31 H10        25.1076   14.7358   13.9912 H           1 MOL       0.0394
     32 H11        23.6691   14.2318   13.0825 H           1 MOL       0.0394
     33 H12        22.9701   13.7920   19.5345 H           1 MOL       0.0271
     34 H13        23.5982   16.0104   19.5432 H           1 MOL       0.1097
     35 H14        24.0991   17.0801   17.6024 H           1 MOL       0.2459
@<TRIPOS>BOND
     1     1     2   1
     2     1     3  ar
     3     1     7  ar
     4     3     4  ar
     5     4     5  ar
     6     5     6  ar
     7     5     8   1
     8     6     7  ar
     9     6    10   1
    10     8     9   1
    11     9    10  ar
    12     9    11  ar
    13    10    15  ar
    14    11    12   1
    15    11    13  ar
    16    13    14  ar
    17    13    17   1
    18    14    15  ar
    19    14    20   1
    20    15    16   1
    21    17    18   2
    22    18    19  am
    23    19    20  am
    24    20    21   2
    25     2    22   1
    26     3    23   1
    27     4    24   1
    28     7    25   1
    29     8    26   1
    30    12    27   1
    31    12    28   1
    32    12    29   1
    33    16    30   1
    34    16    31   1
    35    16    32   1
    36    17    33   1
    37    18    34   1
    38    19    35   1
@<TRIPOS>SUBSTRUCTURE
     1  MOL      1

