@<TRIPOS>MOLECULE
3owj_ligand_047
    35    38
SMALL
GAST_HUCK
****
This file was generated by PARSER (from files_GN.cpp)

@<TRIPOS>ATOM
      1 C1         23.9708   15.6153   10.9515 C.ar        1 MOL       0.0721
      2 O1         23.8191   15.8324    9.6184 O.3         1 MOL      -0.3416
      3 C2         25.2595   15.3014   11.4367 C.ar        1 MOL      -0.0447
      4 C3         25.4609   15.0376   12.8050 C.ar        1 MOL      -0.0486
      5 C4         24.3593   15.1156   13.6725 C.ar        1 MOL       0.0523
      6 C5         23.0748   15.4338   13.2226 C.ar        1 MOL      -0.0192
      7 C6         22.8736   15.6686   11.8433 C.ar        1 MOL      -0.0435
      8 N7         24.3176   14.9061   14.9916 N.pl3       1 MOL      -0.2844
      9 C8         23.0555   15.0423   15.4305 C.ar        1 MOL       0.0555
     10 C9         22.2388   15.4038   14.3518 C.ar        1 MOL      -0.0101
     11 C10        22.5643   14.8790   16.7431 C.ar        1 MOL      -0.0320
     12 C11        23.5076   14.5276   17.8452 C.3         1 MOL      -0.0404
     13 C12        21.1597   15.0273   16.9440 C.ar        1 MOL      -0.0484
     14 C13        20.3000   15.3662   15.8413 C.ar        1 MOL       0.0334
     15 C14        20.8627   15.6709   14.5601 C.ar        1 MOL      -0.0423
     16 C15        20.1005   16.3390   13.4731 C.3         1 MOL      -0.0337
     17 C16        20.5771   14.8518   18.2157 C.2         1 MOL      -0.0576
     18 C17        19.2474   14.9438   18.3777 C.2         1 MOL       0.0437
     19 N18        18.4487   15.1635   17.3326 N.am        1 MOL      -0.2303
     20 C19        18.9110   15.3499   16.1026 C.2         1 MOL       0.2129
     21 O19        18.0578   15.3433   15.2292 O.2         1 MOL      -0.4002
     22 H1         23.0503   16.4320    9.4969 H           1 MOL       0.2441
     23 H2         26.0535   15.2647   10.7929 H           1 MOL       0.0496
     24 H3         26.3908   14.8038   13.1575 H           1 MOL       0.0512
     25 H4         21.9448   15.8581   11.4719 H           1 MOL       0.0468
     26 H5         25.0795   14.6803   15.5435 H           1 MOL       0.2115
     27 H6         24.5438   14.4417   17.5181 H           1 MOL       0.0343
     28 H7         23.2213   13.5692   18.2805 H           1 MOL       0.0343
     29 H8         23.4702   15.2975   18.6174 H           1 MOL       0.0343
     30 H9         20.7147   17.0935   12.9807 H           1 MOL       0.0394
     31 H10        19.2297   16.8834   13.8345 H           1 MOL       0.0394
     32 H11        19.7822   15.5925   12.7467 H           1 MOL       0.0394
     33 H12        21.1291   14.6583   19.0170 H           1 MOL       0.0271
     34 H13        18.8399   14.8154   19.2741 H           1 MOL       0.1097
     35 H14        17.4871   15.1647   17.4724 H           1 MOL       0.2459
@<TRIPOS>BOND
     1     1     2   1
     2     1     3  ar
     3     1     7  ar
     4     3     4  ar
     5     4     5  ar
     6     5     6  ar
     7     5     8   1
     8     6     7  ar
     9     6    10   1
    10     8     9   1
    11     9    10  ar
    12     9    11  ar
    13    10    15  ar
    14    11    12   1
    15    11    13  ar
    16    13    14  ar
    17    13    17   1
    18    14    15  ar
    19    14    20   1
    20    15    16   1
    21    17    18   2
    22    18    19  am
    23    19    20  am
    24    20    21   2
    25     2    22   1
    26     3    23   1
    27     4    24   1
    28     7    25   1
    29     8    26   1
    30    12    27   1
    31    12    28   1
    32    12    29   1
    33    16    30   1
    34    16    31   1
    35    16    32   1
    36    17    33   1
    37    18    34   1
    38    19    35   1
@<TRIPOS>SUBSTRUCTURE
     1  MOL      1

