@<TRIPOS>MOLECULE
3owj_ligand_018
    35    38
SMALL
GAST_HUCK
****
This file was generated by PARSER (from files_GN.cpp)

@<TRIPOS>ATOM
      1 C1         20.9408    5.5104   19.6749 C.ar        1 MOL       0.0721
      2 O1         20.2262    4.7521   20.5398 O.3         1 MOL      -0.3416
      3 C2         21.4271    6.7705   20.0856 C.ar        1 MOL      -0.0447
      4 C3         22.1418    7.5824   19.1842 C.ar        1 MOL      -0.0486
      5 C4         22.3747    7.0985   17.8867 C.ar        1 MOL       0.0523
      6 C5         21.9279    5.8422   17.4646 C.ar        1 MOL      -0.0192
      7 C6         21.1825    5.0460   18.3634 C.ar        1 MOL      -0.0435
      8 N7         23.0035    7.7006   16.8722 N.pl3       1 MOL      -0.2844
      9 C8         22.9810    6.8972   15.7930 C.ar        1 MOL       0.0555
     10 C9         22.3368    5.6997   16.1277 C.ar        1 MOL      -0.0101
     11 C10        23.5055    7.1464   14.5082 C.ar        1 MOL      -0.0320
     12 C11        24.1988    8.4399   14.2416 C.3         1 MOL      -0.0404
     13 C12        23.3071    6.1474   13.5070 C.ar        1 MOL      -0.0484
     14 C13        22.6257    4.9198   13.8257 C.ar        1 MOL       0.0334
     15 C14        22.2327    4.6519   15.1772 C.ar        1 MOL      -0.0423
     16 C15        21.8113    3.3048   15.6494 C.3         1 MOL      -0.0337
     17 C16        23.7735    6.3300   12.1888 C.2         1 MOL      -0.0576
     18 C17        23.5478    5.3990   11.2470 C.2         1 MOL       0.0437
     19 N18        22.8415    4.3058   11.5288 N.am        1 MOL      -0.2303
     20 C19        22.3655    4.0449   12.7406 C.2         1 MOL       0.2129
     21 O19        21.6037    3.0911   12.7891 O.2         1 MOL      -0.4002
     22 H1         19.2917    4.9755   20.3455 H           1 MOL       0.2441
     23 H2         21.2466    7.1048   21.0343 H           1 MOL       0.0496
     24 H3         22.4834    8.5034   19.4667 H           1 MOL       0.0512
     25 H4         20.7916    4.1490   18.0783 H           1 MOL       0.0468
     26 H5         23.3937    8.5868   16.9105 H           1 MOL       0.2115
     27 H6         24.2486    9.0927   15.1131 H           1 MOL       0.0343
     28 H7         23.6725    8.9848   13.4566 H           1 MOL       0.0343
     29 H8         25.2240    8.2518   13.9210 H           1 MOL       0.0343
     30 H9         22.2396    3.0911   16.6289 H           1 MOL       0.0394
     31 H10        22.1742    2.5011   15.0123 H           1 MOL       0.0394
     32 H11        20.7229    3.2602   15.7024 H           1 MOL       0.0394
     33 H12        24.2793    7.1414   11.9248 H           1 MOL       0.0271
     34 H13        23.8758    5.5306   10.3194 H           1 MOL       0.1097
     35 H14        22.6360    3.6896   10.8074 H           1 MOL       0.2459
@<TRIPOS>BOND
     1     1     2   1
     2     1     3  ar
     3     1     7  ar
     4     3     4  ar
     5     4     5  ar
     6     5     6  ar
     7     5     8   1
     8     6     7  ar
     9     6    10   1
    10     8     9   1
    11     9    10  ar
    12     9    11  ar
    13    10    15  ar
    14    11    12   1
    15    11    13  ar
    16    13    14  ar
    17    13    17   1
    18    14    15  ar
    19    14    20   1
    20    15    16   1
    21    17    18   2
    22    18    19  am
    23    19    20  am
    24    20    21   2
    25     2    22   1
    26     3    23   1
    27     4    24   1
    28     7    25   1
    29     8    26   1
    30    12    27   1
    31    12    28   1
    32    12    29   1
    33    16    30   1
    34    16    31   1
    35    16    32   1
    36    17    33   1
    37    18    34   1
    38    19    35   1
@<TRIPOS>SUBSTRUCTURE
     1  MOL      1

