@<TRIPOS>MOLECULE
3owj_ligand_056
    35    38
SMALL
GAST_HUCK
****
This file was generated by PARSER (from files_GN.cpp)

@<TRIPOS>ATOM
      1 C1         18.5809    4.9930   21.1603 C.ar        1 MOL       0.0721
      2 O1         17.8448    4.0981   20.4582 O.3         1 MOL      -0.3416
      3 C2         19.9566    4.7614   21.3705 C.ar        1 MOL      -0.0447
      4 C3         20.7259    5.6779   22.1131 C.ar        1 MOL      -0.0486
      5 C4         20.0945    6.8255   22.6223 C.ar        1 MOL       0.0523
      6 C5         18.7391    7.0917   22.4020 C.ar        1 MOL      -0.0192
      7 C6         17.9667    6.1548   21.6783 C.ar        1 MOL      -0.0435
      8 N7         20.6158    7.8005   23.3724 N.pl3       1 MOL      -0.2844
      9 C8         19.6585    8.7007   23.6614 C.ar        1 MOL       0.0555
     10 C9         18.4617    8.3098   23.0461 C.ar        1 MOL      -0.0101
     11 C10        19.7704    9.8736   24.4354 C.ar        1 MOL      -0.0320
     12 C11        21.0884   10.2428   25.0275 C.3         1 MOL      -0.0404
     13 C12        18.5876   10.6449   24.6403 C.ar        1 MOL      -0.0484
     14 C13        17.3414   10.2442   24.0409 C.ar        1 MOL       0.0334
     15 C14        17.3051    9.1250   23.1463 C.ar        1 MOL      -0.0423
     16 C15        16.1555    8.8412   22.2421 C.3         1 MOL      -0.0337
     17 C16        18.6080   11.8141   25.4285 C.2         1 MOL      -0.0576
     18 C17        17.4797   12.5034   25.6589 C.2         1 MOL       0.0437
     19 N18        16.3141   12.0763   25.1769 N.am        1 MOL      -0.2303
     20 C19        16.1996   10.9959   24.4130 C.2         1 MOL       0.2129
     21 O19        15.0486   10.6447   24.2007 O.2         1 MOL      -0.4002
     22 H1         17.7976    3.3043   21.0308 H           1 MOL       0.2441
     23 H2         20.3982    3.9204   20.9918 H           1 MOL       0.0496
     24 H3         21.7190    5.5098   22.2845 H           1 MOL       0.0512
     25 H4         16.9657    6.2862   21.5433 H           1 MOL       0.0468
     26 H5         21.5377    7.8377   23.6717 H           1 MOL       0.2115
     27 H6         21.8871    9.5451   24.7749 H           1 MOL       0.0343
     28 H7         21.0084   10.2698   26.1156 H           1 MOL       0.0343
     29 H8         21.3896   11.2275   24.6658 H           1 MOL       0.0343
     30 H9         16.5113    8.5410   21.2562 H           1 MOL       0.0394
     31 H10        15.5391    9.7179   22.0552 H           1 MOL       0.0394
     32 H11        15.5354    8.0493   22.6645 H           1 MOL       0.0394
     33 H12        19.4478   12.1555   25.8314 H           1 MOL       0.0271
     34 H13        17.4960   13.3199   26.2236 H           1 MOL       0.1097
     35 H14        15.5083   12.5553   25.4296 H           1 MOL       0.2459
@<TRIPOS>BOND
     1     1     2   1
     2     1     3  ar
     3     1     7  ar
     4     3     4  ar
     5     4     5  ar
     6     5     6  ar
     7     5     8   1
     8     6     7  ar
     9     6    10   1
    10     8     9   1
    11     9    10  ar
    12     9    11  ar
    13    10    15  ar
    14    11    12   1
    15    11    13  ar
    16    13    14  ar
    17    13    17   1
    18    14    15  ar
    19    14    20   1
    20    15    16   1
    21    17    18   2
    22    18    19  am
    23    19    20  am
    24    20    21   2
    25     2    22   1
    26     3    23   1
    27     4    24   1
    28     7    25   1
    29     8    26   1
    30    12    27   1
    31    12    28   1
    32    12    29   1
    33    16    30   1
    34    16    31   1
    35    16    32   1
    36    17    33   1
    37    18    34   1
    38    19    35   1
@<TRIPOS>SUBSTRUCTURE
     1  MOL      1

