@<TRIPOS>MOLECULE
3owj_ligand_024
    35    38
SMALL
GAST_HUCK
****
This file was generated by PARSER (from files_GN.cpp)

@<TRIPOS>ATOM
      1 C1         20.2603   -2.1131   20.9381 C.ar        1 MOL       0.0721
      2 O1         19.5420   -3.2408   21.1628 O.3         1 MOL      -0.3416
      3 C2         21.5165   -2.1658   20.2935 C.ar        1 MOL      -0.0447
      4 C3         22.2668   -0.9879   20.1039 C.ar        1 MOL      -0.0486
      5 C4         21.7359    0.2275   20.5685 C.ar        1 MOL       0.0523
      6 C5         20.4855    0.3042   21.1897 C.ar        1 MOL      -0.0192
      7 C6         19.7418   -0.8793   21.3827 C.ar        1 MOL      -0.0435
      8 N7         22.2819    1.4477   20.5451 N.pl3       1 MOL      -0.2844
      9 C8         21.4468    2.3218   21.1359 C.ar        1 MOL       0.0555
     10 C9         20.2859    1.6505   21.5354 C.ar        1 MOL      -0.0101
     11 C10        21.6334    3.7032   21.3456 C.ar        1 MOL      -0.0320
     12 C11        22.8746    4.3618   20.8428 C.3         1 MOL      -0.0404
     13 C12        20.6166    4.4072   22.0567 C.ar        1 MOL      -0.0484
     14 C13        19.4211    3.7299   22.4895 C.ar        1 MOL       0.0334
     15 C14        19.2125    2.3568   22.1350 C.ar        1 MOL      -0.0423
     16 C15        17.8987    1.6646   22.2650 C.3         1 MOL      -0.0337
     17 C16        20.7514    5.7818   22.3403 C.2         1 MOL      -0.0576
     18 C17        19.8087    6.4302   23.0398 C.2         1 MOL       0.0437
     19 N18        18.7449    5.7811   23.5089 N.am        1 MOL      -0.2303
     20 C19        18.5204    4.4933   23.2744 C.2         1 MOL       0.2129
     21 O19        17.5725    4.0290   23.8897 O.2         1 MOL      -0.4002
     22 H1         20.2022   -3.9496   21.3053 H           1 MOL       0.2441
     23 H2         21.8915   -3.0640   19.9775 H           1 MOL       0.0496
     24 H3         23.1840   -1.0202   19.6535 H           1 MOL       0.0512
     25 H4         18.8514   -0.8715   21.8751 H           1 MOL       0.0468
     26 H5         23.1566    1.6593   20.1838 H           1 MOL       0.2115
     27 H6         23.5354    3.6854   20.3004 H           1 MOL       0.0343
     28 H7         23.4403    4.7717   21.6812 H           1 MOL       0.0343
     29 H8         22.6106    5.1727   20.1606 H           1 MOL       0.0343
     30 H9         17.7036    1.0534   21.3819 H           1 MOL       0.0394
     31 H10        17.0542    2.3473   22.3082 H           1 MOL       0.0394
     32 H11        17.8940    1.0336   23.1565 H           1 MOL       0.0394
     33 H12        21.5376    6.3030   22.0325 H           1 MOL       0.0271
     34 H13        19.9064    7.3986   23.2378 H           1 MOL       0.1097
     35 H14        18.1211    6.2667   24.0724 H           1 MOL       0.2459
@<TRIPOS>BOND
     1     1     2   1
     2     1     3  ar
     3     1     7  ar
     4     3     4  ar
     5     4     5  ar
     6     5     6  ar
     7     5     8   1
     8     6     7  ar
     9     6    10   1
    10     8     9   1
    11     9    10  ar
    12     9    11  ar
    13    10    15  ar
    14    11    12   1
    15    11    13  ar
    16    13    14  ar
    17    13    17   1
    18    14    15  ar
    19    14    20   1
    20    15    16   1
    21    17    18   2
    22    18    19  am
    23    19    20  am
    24    20    21   2
    25     2    22   1
    26     3    23   1
    27     4    24   1
    28     7    25   1
    29     8    26   1
    30    12    27   1
    31    12    28   1
    32    12    29   1
    33    16    30   1
    34    16    31   1
    35    16    32   1
    36    17    33   1
    37    18    34   1
    38    19    35   1
@<TRIPOS>SUBSTRUCTURE
     1  MOL      1

