@<TRIPOS>MOLECULE
3owj_ligand_032
    35    38
SMALL
GAST_HUCK
****
This file was generated by PARSER (from files_GN.cpp)

@<TRIPOS>ATOM
      1 C1         18.2499    3.4395   20.9581 C.ar        1 MOL       0.0721
      2 O1         17.5321    3.1989   19.8338 O.3         1 MOL      -0.3416
      3 C2         18.6972    2.3539   21.7429 C.ar        1 MOL      -0.0447
      4 C3         19.4069    2.5862   22.9370 C.ar        1 MOL      -0.0486
      5 C4         19.6583    3.9141   23.3205 C.ar        1 MOL       0.0523
      6 C5         19.2642    5.0045   22.5375 C.ar        1 MOL      -0.0192
      7 C6         18.5341    4.7669   21.3500 C.ar        1 MOL      -0.0435
      8 N7         20.2582    4.3669   24.4263 N.pl3       1 MOL      -0.2844
      9 C8         20.2929    5.7108   24.3973 C.ar        1 MOL       0.0555
     10 C9         19.6990    6.1590   23.2109 C.ar        1 MOL      -0.0101
     11 C10        20.8444    6.5857   25.3546 C.ar        1 MOL      -0.0320
     12 C11        21.5295    6.0236   26.5544 C.3         1 MOL      -0.0404
     13 C12        20.7164    7.9865   25.1171 C.ar        1 MOL      -0.0484
     14 C13        20.0808    8.4691   23.9190 C.ar        1 MOL       0.0334
     15 C14        19.6658    7.5438   22.9065 C.ar        1 MOL      -0.0423
     16 C15        19.3286    7.9488   21.5132 C.3         1 MOL      -0.0337
     17 C16        21.2152    8.9283   26.0393 C.2         1 MOL      -0.0576
     18 C17        21.0507   10.2439   25.8296 C.2         1 MOL       0.0437
     19 N18        20.3825   10.6823   24.7635 N.am        1 MOL      -0.2303
     20 C19        19.8891    9.8700   23.8352 C.2         1 MOL       0.2129
     21 O19        19.1576   10.4154   23.0230 O.2         1 MOL      -0.4002
     22 H1         18.2047    2.9186   19.1782 H           1 MOL       0.2441
     23 H2         18.4970    1.3954   21.4509 H           1 MOL       0.0496
     24 H3         19.7264    1.8056   23.5145 H           1 MOL       0.0512
     25 H4         18.1837    5.5363   20.7802 H           1 MOL       0.0468
     26 H5         20.5844    3.8176   25.1561 H           1 MOL       0.2115
     27 H6         21.5407    4.9340   26.5769 H           1 MOL       0.0343
     28 H7         21.0263    6.3660   27.4605 H           1 MOL       0.0343
     29 H8         22.5681    6.3586   26.5718 H           1 MOL       0.0343
     30 H9         19.7980    7.2642   20.8059 H           1 MOL       0.0394
     31 H10        19.7167    8.9294   21.2470 H           1 MOL       0.0394
     32 H11        18.2473    7.9400   21.3657 H           1 MOL       0.0394
     33 H12        21.6904    8.6487   26.8638 H           1 MOL       0.0271
     34 H13        21.3940   10.9043   26.4862 H           1 MOL       0.1097
     35 H14        20.2142   11.6349   24.6862 H           1 MOL       0.2459
@<TRIPOS>BOND
     1     1     2   1
     2     1     3  ar
     3     1     7  ar
     4     3     4  ar
     5     4     5  ar
     6     5     6  ar
     7     5     8   1
     8     6     7  ar
     9     6    10   1
    10     8     9   1
    11     9    10  ar
    12     9    11  ar
    13    10    15  ar
    14    11    12   1
    15    11    13  ar
    16    13    14  ar
    17    13    17   1
    18    14    15  ar
    19    14    20   1
    20    15    16   1
    21    17    18   2
    22    18    19  am
    23    19    20  am
    24    20    21   2
    25     2    22   1
    26     3    23   1
    27     4    24   1
    28     7    25   1
    29     8    26   1
    30    12    27   1
    31    12    28   1
    32    12    29   1
    33    16    30   1
    34    16    31   1
    35    16    32   1
    36    17    33   1
    37    18    34   1
    38    19    35   1
@<TRIPOS>SUBSTRUCTURE
     1  MOL      1

