@<TRIPOS>MOLECULE
3owj_ligand_030
    35    38
SMALL
GAST_HUCK
****
This file was generated by PARSER (from files_GN.cpp)

@<TRIPOS>ATOM
      1 C1         23.5945   13.0296   11.7590 C.ar        1 MOL       0.0721
      2 O1         23.4944   14.0629   10.8857 O.3         1 MOL      -0.3416
      3 C2         23.9256   11.7317   11.3058 C.ar        1 MOL      -0.0447
      4 C3         23.9980   10.6569   12.2129 C.ar        1 MOL      -0.0486
      5 C4         23.7742   10.9142   13.5766 C.ar        1 MOL       0.0523
      6 C5         23.5021   12.2012   14.0564 C.ar        1 MOL      -0.0192
      7 C6         23.3845   13.2648   13.1339 C.ar        1 MOL      -0.0435
      8 N7         23.7784   10.0586   14.6029 N.pl3       1 MOL      -0.2844
      9 C8         23.5163   10.7248   15.7419 C.ar        1 MOL       0.0555
     10 C9         23.3601   12.0871   15.4490 C.ar        1 MOL      -0.0101
     11 C10        23.4071   10.2105   17.0512 C.ar        1 MOL      -0.0320
     12 C11        23.6224    8.7550   17.2903 C.3         1 MOL      -0.0404
     13 C12        23.0557   11.1219   18.0918 C.ar        1 MOL      -0.0484
     14 C13        22.8637   12.5198   17.8055 C.ar        1 MOL       0.0334
     15 C14        23.1255   13.0233   16.4889 C.ar        1 MOL      -0.0423
     16 C15        23.2626   14.4750   16.1811 C.3         1 MOL      -0.0337
     17 C16        22.8877   10.6793   19.4199 C.2         1 MOL      -0.0576
     18 C17        22.5086   11.5337   20.3823 C.2         1 MOL       0.0437
     19 N18        22.2440   12.8068   20.0929 N.am        1 MOL      -0.2303
     20 C19        22.3842   13.3172   18.8746 C.2         1 MOL       0.2129
     21 O19        21.9381   14.4479   18.7431 O.2         1 MOL      -0.4002
     22 H1         24.3594   14.0648   10.4182 H           1 MOL       0.2441
     23 H2         24.0766   11.5578   10.3109 H           1 MOL       0.0496
     24 H3         24.2007    9.7081   11.8886 H           1 MOL       0.0512
     25 H4         23.1230   14.2013   13.4379 H           1 MOL       0.0468
     26 H5         23.9419    9.1046   14.5302 H           1 MOL       0.2115
     27 H6         23.8776    8.2018   16.3875 H           1 MOL       0.0343
     28 H7         22.7125    8.3112   17.7016 H           1 MOL       0.0343
     29 H8         24.4439    8.6217   17.9976 H           1 MOL       0.0343
     30 H9         24.0952   14.6408   15.4976 H           1 MOL       0.0394
     31 H10        23.5096   15.0702   17.0590 H           1 MOL       0.0394
     32 H11        22.3382   14.8502   15.7379 H           1 MOL       0.0394
     33 H12        23.0544    9.7343   19.6797 H           1 MOL       0.0271
     34 H13        22.3856   11.2177   21.3160 H           1 MOL       0.1097
     35 H14        21.8926   13.3761   20.7969 H           1 MOL       0.2459
@<TRIPOS>BOND
     1     1     2   1
     2     1     3  ar
     3     1     7  ar
     4     3     4  ar
     5     4     5  ar
     6     5     6  ar
     7     5     8   1
     8     6     7  ar
     9     6    10   1
    10     8     9   1
    11     9    10  ar
    12     9    11  ar
    13    10    15  ar
    14    11    12   1
    15    11    13  ar
    16    13    14  ar
    17    13    17   1
    18    14    15  ar
    19    14    20   1
    20    15    16   1
    21    17    18   2
    22    18    19  am
    23    19    20  am
    24    20    21   2
    25     2    22   1
    26     3    23   1
    27     4    24   1
    28     7    25   1
    29     8    26   1
    30    12    27   1
    31    12    28   1
    32    12    29   1
    33    16    30   1
    34    16    31   1
    35    16    32   1
    36    17    33   1
    37    18    34   1
    38    19    35   1
@<TRIPOS>SUBSTRUCTURE
     1  MOL      1

