@<TRIPOS>MOLECULE
3owj_ligand_005
    35    38
SMALL
GAST_HUCK
****
This file was generated by PARSER (from files_GN.cpp)

@<TRIPOS>ATOM
      1 C1         16.0299    7.7227   22.3923 C.ar        1 MOL       0.0721
      2 O1         14.8645    7.1299   22.7404 O.3         1 MOL      -0.3416
      3 C2         16.0968    9.0986   22.0886 C.ar        1 MOL      -0.0447
      4 C3         17.3280    9.6804   21.7291 C.ar        1 MOL      -0.0486
      5 C4         18.4717    8.8654   21.6888 C.ar        1 MOL       0.0523
      6 C5         18.4308    7.5030   22.0017 C.ar        1 MOL      -0.0192
      7 C6         17.1878    6.9209   22.3343 C.ar        1 MOL      -0.0435
      8 N7         19.7199    9.1952   21.3459 N.pl3       1 MOL      -0.2844
      9 C8         20.5061    8.1060   21.4170 C.ar        1 MOL       0.0555
     10 C9         19.7417    7.0180   21.8580 C.ar        1 MOL      -0.0101
     11 C10        21.8825    8.0034   21.1291 C.ar        1 MOL      -0.0320
     12 C11        22.6341    9.2145   20.6951 C.3         1 MOL      -0.0404
     13 C12        22.4858    6.7151   21.2398 C.ar        1 MOL      -0.0484
     14 C13        21.7114    5.5791   21.6650 C.ar        1 MOL       0.0334
     15 C14        20.3516    5.7571   22.0829 C.ar        1 MOL      -0.0423
     16 C15        19.5879    4.7206   22.8336 C.3         1 MOL      -0.0337
     17 C16        23.8496    6.5201   20.9371 C.2         1 MOL      -0.0576
     18 C17        24.3966    5.2947   20.9972 C.2         1 MOL       0.0437
     19 N18        23.6544    4.2303   21.2972 N.am        1 MOL      -0.2303
     20 C19        22.3646    4.3203   21.6065 C.2         1 MOL       0.2129
     21 O19        21.7886    3.2472   21.6943 O.2         1 MOL      -0.4002
     22 H1         14.4600    7.7338   23.3962 H           1 MOL       0.2441
     23 H2         15.2546    9.6747   22.1257 H           1 MOL       0.0496
     24 H3         17.3873   10.6724   21.4932 H           1 MOL       0.0512
     25 H4         17.1103    5.9253   22.5312 H           1 MOL       0.0468
     26 H5         20.0024   10.0798   21.0652 H           1 MOL       0.2115
     27 H6         22.0252   10.1170   20.6624 H           1 MOL       0.0343
     28 H7         23.0461    9.0590   19.6965 H           1 MOL       0.0343
     29 H8         23.4462    9.4016   21.3955 H           1 MOL       0.0343
     30 H9         19.0081    5.1805   23.6348 H           1 MOL       0.0394
     31 H10        20.2335    4.0045   23.3391 H           1 MOL       0.0394
     32 H11        18.9173    4.1887   22.1563 H           1 MOL       0.0394
     33 H12        24.4336    7.2745   20.6653 H           1 MOL       0.0271
     34 H13        25.3574    5.1638   20.7788 H           1 MOL       0.1097
     35 H14        24.0705    3.3492   21.2428 H           1 MOL       0.2459
@<TRIPOS>BOND
     1     1     2   1
     2     1     3  ar
     3     1     7  ar
     4     3     4  ar
     5     4     5  ar
     6     5     6  ar
     7     5     8   1
     8     6     7  ar
     9     6    10   1
    10     8     9   1
    11     9    10  ar
    12     9    11  ar
    13    10    15  ar
    14    11    12   1
    15    11    13  ar
    16    13    14  ar
    17    13    17   1
    18    14    15  ar
    19    14    20   1
    20    15    16   1
    21    17    18   2
    22    18    19  am
    23    19    20  am
    24    20    21   2
    25     2    22   1
    26     3    23   1
    27     4    24   1
    28     7    25   1
    29     8    26   1
    30    12    27   1
    31    12    28   1
    32    12    29   1
    33    16    30   1
    34    16    31   1
    35    16    32   1
    36    17    33   1
    37    18    34   1
    38    19    35   1
@<TRIPOS>SUBSTRUCTURE
     1  MOL      1

