@<TRIPOS>MOLECULE
3owj_ligand_016
    35    38
SMALL
GAST_HUCK
****
This file was generated by PARSER (from files_GN.cpp)

@<TRIPOS>ATOM
      1 C1         25.3706   15.2022   11.9206 C.ar        1 MOL       0.0721
      2 O1         26.6666   14.8446   11.7446 O.3         1 MOL      -0.3416
      3 C2         24.5973   15.6683   10.8347 C.ar        1 MOL      -0.0447
      4 C3         23.2519   16.0382   11.0288 C.ar        1 MOL      -0.0486
      5 C4         22.6938   15.8965   12.3126 C.ar        1 MOL       0.0523
      6 C5         23.4357   15.4220   13.3988 C.ar        1 MOL      -0.0192
      7 C6         24.7982   15.0999   13.2074 C.ar        1 MOL      -0.0435
      8 N7         21.4524   16.1765   12.7243 N.pl3       1 MOL      -0.2844
      9 C8         21.3510   15.9224   14.0418 C.ar        1 MOL       0.0555
     10 C9         22.5731   15.4191   14.5079 C.ar        1 MOL      -0.0101
     11 C10        20.2343   16.0948   14.8850 C.ar        1 MOL      -0.0320
     12 C11        18.9546   16.5982   14.3181 C.3         1 MOL      -0.0404
     13 C12        20.3961   15.8001   16.2714 C.ar        1 MOL      -0.0484
     14 C13        21.6537   15.3090   16.7706 C.ar        1 MOL       0.0334
     15 C14        22.7178   15.0113   15.8594 C.ar        1 MOL      -0.0423
     16 C15        23.9125   14.2085   16.2403 C.3         1 MOL      -0.0337
     17 C16        19.3358   15.9747   17.1865 C.2         1 MOL      -0.0576
     18 C17        19.5151   15.7418   18.4962 C.2         1 MOL       0.0437
     19 N18        20.7094   15.3788   18.9625 N.am        1 MOL      -0.2303
     20 C19        21.7620   15.1782   18.1772 C.2         1 MOL       0.2129
     21 O19        22.8171   15.0331   18.7753 O.2         1 MOL      -0.4002
     22 H1         26.6624   14.2554   10.9576 H           1 MOL       0.2441
     23 H2         25.0179   15.7523    9.9064 H           1 MOL       0.0496
     24 H3         22.6957   16.4024   10.2530 H           1 MOL       0.0512
     25 H4         25.3875   14.8125   13.9867 H           1 MOL       0.0468
     26 H5         20.7453   16.5141   12.1561 H           1 MOL       0.2115
     27 H6         18.9961   16.7804   13.2464 H           1 MOL       0.0343
     28 H7         18.6819   17.5380   14.7998 H           1 MOL       0.0343
     29 H8         18.1693   15.8642   14.4949 H           1 MOL       0.0343
     30 H9         24.1682   13.5060   15.4463 H           1 MOL       0.0394
     31 H10        23.7424   13.5842   17.1144 H           1 MOL       0.0394
     32 H11        24.7560   14.8730   16.4316 H           1 MOL       0.0394
     33 H12        18.4377   16.2727   16.8886 H           1 MOL       0.0271
     34 H13        18.7670   15.8757   19.1362 H           1 MOL       0.1097
     35 H14        20.8212   15.3007   19.9235 H           1 MOL       0.2459
@<TRIPOS>BOND
     1     1     2   1
     2     1     3  ar
     3     1     7  ar
     4     3     4  ar
     5     4     5  ar
     6     5     6  ar
     7     5     8   1
     8     6     7  ar
     9     6    10   1
    10     8     9   1
    11     9    10  ar
    12     9    11  ar
    13    10    15  ar
    14    11    12   1
    15    11    13  ar
    16    13    14  ar
    17    13    17   1
    18    14    15  ar
    19    14    20   1
    20    15    16   1
    21    17    18   2
    22    18    19  am
    23    19    20  am
    24    20    21   2
    25     2    22   1
    26     3    23   1
    27     4    24   1
    28     7    25   1
    29     8    26   1
    30    12    27   1
    31    12    28   1
    32    12    29   1
    33    16    30   1
    34    16    31   1
    35    16    32   1
    36    17    33   1
    37    18    34   1
    38    19    35   1
@<TRIPOS>SUBSTRUCTURE
     1  MOL      1

