@<TRIPOS>MOLECULE
3owj_ligand_048
    35    38
SMALL
GAST_HUCK
****
This file was generated by PARSER (from files_GN.cpp)

@<TRIPOS>ATOM
      1 C1         19.5622    4.6528   27.9515 C.ar        1 MOL       0.0721
      2 O1         19.1180    3.9572   29.0251 O.3         1 MOL      -0.3416
      3 C2         20.9452    4.7120   27.6785 C.ar        1 MOL      -0.0447
      4 C3         21.4208    5.4606   26.5850 C.ar        1 MOL      -0.0486
      5 C4         20.4853    6.1046   25.7573 C.ar        1 MOL       0.0523
      6 C5         19.1083    6.0321   25.9873 C.ar        1 MOL      -0.0192
      7 C6         18.6418    5.3254   27.1176 C.ar        1 MOL      -0.0435
      8 N7         20.7075    6.8679   24.6849 N.pl3       1 MOL      -0.2844
      9 C8         19.5337    7.3086   24.1987 C.ar        1 MOL       0.0555
     10 C9         18.4912    6.7816   24.9714 C.ar        1 MOL      -0.0101
     11 C10        19.3122    8.1528   23.0927 C.ar        1 MOL      -0.0320
     12 C11        20.4742    8.6445   22.2978 C.3         1 MOL      -0.0404
     13 C12        17.9642    8.5222   22.8056 C.ar        1 MOL      -0.0484
     14 C13        16.8798    8.0084   23.6016 C.ar        1 MOL       0.0334
     15 C14        17.1404    7.0430   24.6282 C.ar        1 MOL      -0.0423
     16 C15        16.0730    6.2289   25.2750 C.3         1 MOL      -0.0337
     17 C16        17.6605    9.3909   21.7381 C.2         1 MOL      -0.0576
     18 C17        16.3939    9.7642   21.4986 C.2         1 MOL       0.0437
     19 N18        15.4062    9.3573   22.2934 N.am        1 MOL      -0.2303
     20 C19        15.5946    8.5329   23.3172 C.2         1 MOL       0.2129
     21 O19        14.6230    8.3982   24.0455 O.2         1 MOL      -0.4002
     22 H1         19.0873    4.6144   29.7514 H           1 MOL       0.2441
     23 H2         21.6088    4.2276   28.2871 H           1 MOL       0.0496
     24 H3         22.4222    5.5408   26.4016 H           1 MOL       0.0512
     25 H4         17.6523    5.3076   27.3574 H           1 MOL       0.0468
     26 H5         21.5817    7.0776   24.3277 H           1 MOL       0.2115
     27 H6         21.4334    8.2683   22.6549 H           1 MOL       0.0343
     28 H7         20.5131    9.7342   22.3417 H           1 MOL       0.0343
     29 H8         20.3660    8.3296   21.2583 H           1 MOL       0.0343
     30 H9         16.4013    5.1965   25.3968 H           1 MOL       0.0394
     31 H10        15.1710    6.1598   24.6713 H           1 MOL       0.0394
     32 H11        15.8215    6.6485   26.2504 H           1 MOL       0.0394
     33 H12        18.3682    9.7486   21.1428 H           1 MOL       0.0271
     34 H13        16.1844   10.3797   20.7481 H           1 MOL       0.1097
     35 H14        14.5168    9.7146   22.1405 H           1 MOL       0.2459
@<TRIPOS>BOND
     1     1     2   1
     2     1     3  ar
     3     1     7  ar
     4     3     4  ar
     5     4     5  ar
     6     5     6  ar
     7     5     8   1
     8     6     7  ar
     9     6    10   1
    10     8     9   1
    11     9    10  ar
    12     9    11  ar
    13    10    15  ar
    14    11    12   1
    15    11    13  ar
    16    13    14  ar
    17    13    17   1
    18    14    15  ar
    19    14    20   1
    20    15    16   1
    21    17    18   2
    22    18    19  am
    23    19    20  am
    24    20    21   2
    25     2    22   1
    26     3    23   1
    27     4    24   1
    28     7    25   1
    29     8    26   1
    30    12    27   1
    31    12    28   1
    32    12    29   1
    33    16    30   1
    34    16    31   1
    35    16    32   1
    36    17    33   1
    37    18    34   1
    38    19    35   1
@<TRIPOS>SUBSTRUCTURE
     1  MOL      1

