@<TRIPOS>MOLECULE
3ozt_ligand_065
    50    52
SMALL
GAST_HUCK
****
This file was generated by PARSER (from files_GN.cpp)

@<TRIPOS>ATOM
      1 C1         39.0460   -0.2749  -14.8048 C.3         1 OZZ       0.1189
      2 C2         40.3266   -0.8732  -14.2092 C.3         1 OZZ       0.1403
      3 C3         40.2625   -0.3767  -12.7537 C.3         1 OZZ       0.2027
      4 O4         38.8627   -0.3255  -12.4111 O.3         1 OZZ      -0.3296
      5 C5         38.0706   -0.3626  -13.6089 C.3         1 OZZ       0.1082
      6 C6         37.2952   -1.5971  -13.6037 C.2         1 OZZ      -0.0658
      7 N7         41.0459   -1.1656  -11.8633 N.pl3       1 OZZ      -0.2105
      8 O8         39.2174    1.0989  -15.1624 O.3         1 OZZ      -0.3846
      9 O9         41.4859   -0.4324  -14.9010 O.3         1 OZZ      -0.3834
     10 C10        35.9869   -1.6606  -13.9184 C.2         1 OZZ      -0.0744
     11 C11        35.1780   -2.8502  -13.7308 C.3         1 OZZ       0.0473
     12 N12        35.2868   -3.2962  -12.3749 N.am        1 OZZ      -0.2765
     13 C13        34.5379   -4.1897  -11.7464 C.2         1 OZZ       0.2411
     14 C14        34.8351   -4.5822  -10.4300 C.ar        1 OZZ       0.2482
     15 C15        34.5053   -5.8720   -9.9346 C.ar        1 OZZ       0.3921
     16 C16        34.8614   -6.2537   -8.6270 C.ar        1 OZZ       0.3797
     17 C17        35.5570   -5.3628   -7.7937 C.ar        1 OZZ       0.1691
     18 C18        35.8767   -4.0562   -8.2263 C.ar        1 OZZ       0.2168
     19 C19        35.4970   -3.6901   -9.5384 C.ar        1 OZZ       0.1162
     20 N20        36.5288   -3.1818   -7.4057 N.2         1 OZZ      -0.1404
     21 O21        33.8703   -6.7852  -10.7183 O.3         1 OZZ      -0.1763
     22 O22        34.5484   -7.4794   -8.1445 O.3         1 OZZ      -0.1825
     23 O23        33.5791   -4.6740  -12.3517 O.2         1 OZZ      -0.3823
     24 O24        36.9347   -3.5121   -6.2082 O.2         1 OZZ      -0.4541
     25 O25        36.8019   -2.0563   -7.7335 O.2         1 OZZ      -0.4541
     26 C26        42.2898   -0.7769  -11.5410 C.2         1 OZZ       0.0592
     27 C27        43.0332   -1.4754  -10.6560 C.2         1 OZZ      -0.0116
     28 C28        42.5080   -2.6051  -10.0956 C.2         1 OZZ       0.0683
     29 C29        40.5621   -2.3136  -11.3654 C.2         1 OZZ       0.0592
     30 C30        41.2664   -3.0392  -10.4724 C.2         1 OZZ      -0.0116
     31 O31        43.1572   -3.2412   -9.2769 O.2         1 OZZ      -0.4519
     32 H1         38.7039   -0.8403  -15.6883 H           1 OZZ       0.0667
     33 H2         40.2731   -1.9684  -14.2407 H           1 OZZ       0.0678
     34 H3         40.5988    0.6724  -12.7407 H           1 OZZ       0.0999
     35 H4         37.4086    0.5103  -13.5950 H           1 OZZ       0.0749
     36 H5         37.7512   -2.4214  -13.2989 H           1 OZZ       0.0477
     37 H6         39.9185    1.1188  -15.8528 H           1 OZZ       0.2102
     38 H7         42.1980   -0.3747  -14.2154 H           1 OZZ       0.2101
     39 H8         35.5293   -0.8381  -14.2479 H           1 OZZ       0.0470
     40 H9         35.5213   -3.6377  -14.4122 H           1 OZZ       0.0643
     41 H10        34.1358   -2.6211  -13.9592 H           1 OZZ       0.0643
     42 H11        36.0351   -2.9361  -11.8707 H           1 OZZ       0.1867
     43 H12        35.8149   -5.6797   -6.8558 H           1 OZZ       0.1086
     44 H13        35.7018   -2.7380   -9.8421 H           1 OZZ       0.1563
     45 H14        33.0499   -7.0269  -10.2321 H           1 OZZ       0.3540
     46 H15        34.9698   -8.1133   -8.7613 H           1 OZZ       0.3497
     47 H16        42.6984    0.0338  -11.9512 H           1 OZZ       0.1185
     48 H17        43.9526   -1.1712  -10.4284 H           1 OZZ       0.0387
     49 H18        39.6673   -2.6550  -11.6346 H           1 OZZ       0.1185
     50 H19        40.8875   -3.8827  -10.0991 H           1 OZZ       0.0387
@<TRIPOS>BOND
     1     1     2   1
     2     1     5   1
     3     1     8   1
     4     2     3   1
     5     2     9   1
     6     3     4   1
     7     3     7   1
     8     4     5   1
     9     5     6   1
    10     6    10   2
    11     7    26   1
    12     7    29   1
    13    10    11   1
    14    11    12   1
    15    12    13  am
    16    13    14   1
    17    13    23   2
    18    14    15  ar
    19    14    19  ar
    20    15    16  ar
    21    15    21   1
    22    16    17  ar
    23    16    22   1
    24    17    18  ar
    25    18    19  ar
    26    18    20   1
    27    20    24   2
    28    20    25   2
    29    26    27   2
    30    27    28   1
    31    28    30   1
    32    28    31   2
    33    29    30   2
    34     1    32   1
    35     2    33   1
    36     3    34   1
    37     5    35   1
    38     6    36   1
    39     8    37   1
    40     9    38   1
    41    10    39   1
    42    11    40   1
    43    11    41   1
    44    12    42   1
    45    17    43   1
    46    19    44   1
    47    21    45   1
    48    22    46   1
    49    26    47   1
    50    27    48   1
    51    29    49   1
    52    30    50   1
@<TRIPOS>SUBSTRUCTURE
     1  OZZ      1

