@<TRIPOS>MOLECULE
3ozt_ligand_070
    50    52
SMALL
GAST_HUCK
****
This file was generated by PARSER (from files_GN.cpp)

@<TRIPOS>ATOM
      1 C1         36.4760   -2.4683  -12.7108 C.3         1 OZZ       0.1189
      2 C2         35.2580   -1.8253  -13.3838 C.3         1 OZZ       0.1403
      3 C3         34.6214   -0.9393  -12.2710 C.3         1 OZZ       0.2027
      4 O4         35.4433   -1.1457  -11.0964 O.3         1 OZZ      -0.3296
      5 C5         36.1203   -2.4024  -11.2150 C.3         1 OZZ       0.1082
      6 C6         37.2749   -2.4759  -10.3326 C.2         1 OZZ      -0.0658
      7 N7         34.4311    0.4268  -12.6535 N.pl3       1 OZZ      -0.2105
      8 O8         36.7579   -3.7978  -13.1451 O.3         1 OZZ      -0.3846
      9 O9         34.3412   -2.8239  -13.8320 O.3         1 OZZ      -0.3834
     10 C10        37.2119   -2.2593   -9.0092 C.2         1 OZZ      -0.0744
     11 C11        38.3870   -2.3101   -8.1563 C.3         1 OZZ       0.0473
     12 N12        38.2034   -1.5078   -6.9890 N.am        1 OZZ      -0.2765
     13 C13        38.8170   -1.6698   -5.8226 C.2         1 OZZ       0.2411
     14 C14        38.5584   -0.7795   -4.7897 C.ar        1 OZZ       0.2482
     15 C15        38.5757    0.6230   -4.9982 C.ar        1 OZZ       0.3921
     16 C16        38.2844    1.5001   -3.9402 C.ar        1 OZZ       0.3797
     17 C17        37.9786    0.9913   -2.6651 C.ar        1 OZZ       0.1691
     18 C18        37.9574   -0.4027   -2.4154 C.ar        1 OZZ       0.2168
     19 C19        38.2567   -1.2677   -3.4927 C.ar        1 OZZ       0.1162
     20 N20        37.6515   -0.8855   -1.1720 N.2         1 OZZ      -0.1404
     21 O21        38.9045    1.1507   -6.2065 O.3         1 OZZ      -0.1763
     22 O22        38.2924    2.8437   -4.1229 O.3         1 OZZ      -0.1825
     23 O23        39.5546   -2.6251   -5.6196 O.2         1 OZZ      -0.3823
     24 O24        37.3684   -0.1028   -0.1672 O.2         1 OZZ      -0.4541
     25 O25        37.6269   -2.0648   -0.9248 O.2         1 OZZ      -0.4541
     26 C26        34.9958    1.4433  -11.9786 C.2         1 OZZ       0.0592
     27 C27        34.7357    2.7324  -12.2885 C.2         1 OZZ      -0.0116
     28 C28        33.8875    3.0054  -13.3270 C.2         1 OZZ       0.0683
     29 C29        33.5939    0.7081  -13.6735 C.2         1 OZZ       0.0592
     30 C30        33.3391    1.9809  -14.0446 C.2         1 OZZ      -0.0116
     31 O31        33.5411    4.1607  -13.5427 O.2         1 OZZ      -0.4519
     32 H1         37.3575   -1.8492  -12.9166 H           1 OZZ       0.0667
     33 H2         35.5932   -1.2471  -14.2487 H           1 OZZ       0.0678
     34 H3         33.6336   -1.3406  -12.0100 H           1 OZZ       0.0999
     35 H4         35.4226   -3.2056  -10.9553 H           1 OZZ       0.0749
     36 H5         38.1593   -2.6880  -10.7353 H           1 OZZ       0.0477
     37 H6         35.9438   -4.3162  -12.9506 H           1 OZZ       0.2102
     38 H7         33.8607   -2.4051  -14.5713 H           1 OZZ       0.2101
     39 H8         36.3220   -2.0785   -8.5957 H           1 OZZ       0.0470
     40 H9         39.2626   -1.9142   -8.6830 H           1 OZZ       0.0643
     41 H10        38.5739   -3.3575   -7.9063 H           1 OZZ       0.0643
     42 H11        37.5886   -0.7597   -7.0657 H           1 OZZ       0.1867
     43 H12        37.7668    1.6553   -1.9189 H           1 OZZ       0.1086
     44 H13        38.2298   -2.2822   -3.3428 H           1 OZZ       0.1563
     45 H14        39.8727    1.3102   -6.1537 H           1 OZZ       0.3540
     46 H15        37.9699    2.9793   -5.0409 H           1 OZZ       0.3497
     47 H16        35.6211    1.2831  -11.2216 H           1 OZZ       0.1185
     48 H17        35.1506    3.4656  -11.7603 H           1 OZZ       0.0387
     49 H18        33.1591   -0.0197  -14.1953 H           1 OZZ       0.1185
     50 H19        32.7483    2.1663  -14.8271 H           1 OZZ       0.0387
@<TRIPOS>BOND
     1     1     2   1
     2     1     5   1
     3     1     8   1
     4     2     3   1
     5     2     9   1
     6     3     4   1
     7     3     7   1
     8     4     5   1
     9     5     6   1
    10     6    10   2
    11     7    26   1
    12     7    29   1
    13    10    11   1
    14    11    12   1
    15    12    13  am
    16    13    14   1
    17    13    23   2
    18    14    15  ar
    19    14    19  ar
    20    15    16  ar
    21    15    21   1
    22    16    17  ar
    23    16    22   1
    24    17    18  ar
    25    18    19  ar
    26    18    20   1
    27    20    24   2
    28    20    25   2
    29    26    27   2
    30    27    28   1
    31    28    30   1
    32    28    31   2
    33    29    30   2
    34     1    32   1
    35     2    33   1
    36     3    34   1
    37     5    35   1
    38     6    36   1
    39     8    37   1
    40     9    38   1
    41    10    39   1
    42    11    40   1
    43    11    41   1
    44    12    42   1
    45    17    43   1
    46    19    44   1
    47    21    45   1
    48    22    46   1
    49    26    47   1
    50    27    48   1
    51    29    49   1
    52    30    50   1
@<TRIPOS>SUBSTRUCTURE
     1  OZZ      1

