@<TRIPOS>MOLECULE
3ozt_ligand_025
    50    52
SMALL
GAST_HUCK
****
This file was generated by PARSER (from files_GN.cpp)

@<TRIPOS>ATOM
      1 C1         40.3288   -2.6440  -12.5204 C.3         1 OZZ       0.1189
      2 C2         41.5758   -3.4280  -12.0608 C.3         1 OZZ       0.1403
      3 C3         41.2273   -4.9065  -12.4127 C.3         1 OZZ       0.2027
      4 O4         39.9796   -4.8796  -13.1289 O.3         1 OZZ      -0.3296
      5 C5         39.2551   -3.7466  -12.6402 C.3         1 OZZ       0.1082
      6 C6         38.1704   -3.4255  -13.5618 C.2         1 OZZ      -0.0658
      7 N7         42.2034   -5.6099  -13.1789 N.pl3       1 OZZ      -0.2105
      8 O8         39.9255   -1.5910  -11.6410 O.3         1 OZZ      -0.3846
      9 O9         41.8278   -3.2715  -10.6645 O.3         1 OZZ      -0.3834
     10 C10        36.8946   -3.2460  -13.1794 C.2         1 OZZ      -0.0744
     11 C11        35.7991   -2.9395  -14.0870 C.3         1 OZZ       0.0473
     12 N12        35.3672   -1.5821  -13.9896 N.am        1 OZZ      -0.2765
     13 C13        34.7787   -0.9928  -12.9546 C.2         1 OZZ       0.2411
     14 C14        34.3721    0.3369  -13.0402 C.ar        1 OZZ       0.2482
     15 C15        33.7332    0.8493  -14.1982 C.ar        1 OZZ       0.3921
     16 C16        33.3434    2.1993  -14.2690 C.ar        1 OZZ       0.3797
     17 C17        33.5684    3.0497  -13.1720 C.ar        1 OZZ       0.1691
     18 C18        34.1655    2.5704  -11.9805 C.ar        1 OZZ       0.2168
     19 C19        34.5640    1.2105  -11.9439 C.ar        1 OZZ       0.1162
     20 N20        34.3445    3.3962  -10.9079 N.2         1 OZZ      -0.1404
     21 O21        33.4382    0.0358  -15.2408 O.3         1 OZZ      -0.1763
     22 O22        32.7322    2.6591  -15.3934 O.3         1 OZZ      -0.1825
     23 O23        34.6110   -1.6021  -11.9051 O.2         1 OZZ      -0.3823
     24 O24        34.0341    4.6648  -10.9457 O.2         1 OZZ      -0.4541
     25 O25        34.7801    3.0094   -9.8542 O.2         1 OZZ      -0.4541
     26 C26        42.7227   -6.7633  -12.7293 C.2         1 OZZ       0.0592
     27 C27        43.7078   -7.3986  -13.4005 C.2         1 OZZ      -0.0116
     28 C28        44.1761   -6.8548  -14.5627 C.2         1 OZZ       0.0683
     29 C29        42.5946   -5.1375  -14.3740 C.2         1 OZZ       0.0592
     30 C30        43.5884   -5.7288  -15.0690 C.2         1 OZZ      -0.0116
     31 O31        45.0990   -7.3937  -15.1598 O.2         1 OZZ      -0.4519
     32 H1         40.5261   -2.2071  -13.5032 H           1 OZZ       0.0667
     33 H2         42.4559   -3.0655  -12.5957 H           1 OZZ       0.0678
     34 H3         41.0041   -5.4263  -11.4712 H           1 OZZ       0.0999
     35 H4         38.8658   -3.9841  -11.6397 H           1 OZZ       0.0749
     36 H5         38.4047   -3.3324  -14.5254 H           1 OZZ       0.0477
     37 H6         39.7633   -2.0218  -10.7776 H           1 OZZ       0.2102
     38 H7         42.6420   -3.7890  -10.4912 H           1 OZZ       0.2101
     39 H8         36.6794   -3.3027  -12.2098 H           1 OZZ       0.0470
     40 H9         34.9618   -3.6103  -13.8818 H           1 OZZ       0.0643
     41 H10        36.1010   -3.1056  -15.1234 H           1 OZZ       0.0643
     42 H11        35.4915   -1.0490  -14.7907 H           1 OZZ       0.1867
     43 H12        33.2743    4.0259  -13.2435 H           1 OZZ       0.1086
     44 H13        35.0211    0.8526  -11.0998 H           1 OZZ       0.1563
     45 H14        32.4621   -0.0084  -15.2524 H           1 OZZ       0.3540
     46 H15        33.0623    3.5683  -15.5599 H           1 OZZ       0.3497
     47 H16        42.3889   -7.1853  -11.8909 H           1 OZZ       0.1185
     48 H17        44.0794   -8.2556  -13.0533 H           1 OZZ       0.0387
     49 H18        42.1673   -4.3287  -14.7681 H           1 OZZ       0.1185
     50 H19        43.8870   -5.3529  -15.9421 H           1 OZZ       0.0387
@<TRIPOS>BOND
     1     1     2   1
     2     1     5   1
     3     1     8   1
     4     2     3   1
     5     2     9   1
     6     3     4   1
     7     3     7   1
     8     4     5   1
     9     5     6   1
    10     6    10   2
    11     7    26   1
    12     7    29   1
    13    10    11   1
    14    11    12   1
    15    12    13  am
    16    13    14   1
    17    13    23   2
    18    14    15  ar
    19    14    19  ar
    20    15    16  ar
    21    15    21   1
    22    16    17  ar
    23    16    22   1
    24    17    18  ar
    25    18    19  ar
    26    18    20   1
    27    20    24   2
    28    20    25   2
    29    26    27   2
    30    27    28   1
    31    28    30   1
    32    28    31   2
    33    29    30   2
    34     1    32   1
    35     2    33   1
    36     3    34   1
    37     5    35   1
    38     6    36   1
    39     8    37   1
    40     9    38   1
    41    10    39   1
    42    11    40   1
    43    11    41   1
    44    12    42   1
    45    17    43   1
    46    19    44   1
    47    21    45   1
    48    22    46   1
    49    26    47   1
    50    27    48   1
    51    29    49   1
    52    30    50   1
@<TRIPOS>SUBSTRUCTURE
     1  OZZ      1

