@<TRIPOS>MOLECULE
3ozt_ligand_085
    50    52
SMALL
GAST_HUCK
****
This file was generated by PARSER (from files_GN.cpp)

@<TRIPOS>ATOM
      1 C1         36.9548   -2.1851  -11.9995 C.3         1 OZZ       0.1189
      2 C2         36.6453   -1.0439  -12.9927 C.3         1 OZZ       0.1403
      3 C3         35.1578   -0.7203  -12.7178 C.3         1 OZZ       0.2027
      4 O4         34.9842   -1.0009  -11.3215 O.3         1 OZZ      -0.3296
      5 C5         35.7542   -2.1691  -11.0146 C.3         1 OZZ       0.1082
      6 C6         36.1354   -2.1335   -9.6126 C.2         1 OZZ      -0.0658
      7 N7         34.7570    0.6167  -13.0137 N.pl3       1 OZZ      -0.2105
      8 O8         37.0427   -3.4624  -12.6382 O.3         1 OZZ      -0.3846
      9 O9         36.8838   -1.4278  -14.3484 O.3         1 OZZ      -0.3834
     10 C10        36.3402   -3.2376   -8.8761 C.2         1 OZZ      -0.0744
     11 C11        36.7124   -3.1767   -7.4742 C.3         1 OZZ       0.0473
     12 N12        37.2461   -4.4140   -6.9978 N.am        1 OZZ      -0.2765
     13 C13        37.6014   -4.6466   -5.7402 C.2         1 OZZ       0.2411
     14 C14        38.1758   -5.8522   -5.4096 C.ar        1 OZZ       0.2482
     15 C15        39.5829   -6.0015   -5.4006 C.ar        1 OZZ       0.3921
     16 C16        40.1514   -7.2321   -5.0271 C.ar        1 OZZ       0.3797
     17 C17        39.3273   -8.3144   -4.6733 C.ar        1 OZZ       0.1691
     18 C18        37.9152   -8.2042   -4.6918 C.ar        1 OZZ       0.2168
     19 C19        37.3581   -6.9509   -5.0590 C.ar        1 OZZ       0.1162
     20 N20        37.1223   -9.2655   -4.3655 N.2         1 OZZ      -0.1404
     21 O21        40.3976   -4.9650   -5.7313 O.3         1 OZZ      -0.1763
     22 O22        41.4973   -7.3791   -4.9902 O.3         1 OZZ      -0.1825
     23 O23        37.4546   -3.8216   -4.8494 O.2         1 OZZ      -0.3823
     24 O24        37.6175  -10.4249   -4.0177 O.2         1 OZZ      -0.4541
     25 O25        35.9200   -9.2103   -4.3837 O.2         1 OZZ      -0.4541
     26 C26        33.8260    0.8596  -13.9520 C.2         1 OZZ       0.0592
     27 C27        33.4238    2.1164  -14.2279 C.2         1 OZZ      -0.0116
     28 C28        33.9746    3.1607  -13.5374 C.2         1 OZZ       0.0683
     29 C29        35.2752    1.6458  -12.3179 C.2         1 OZZ       0.0592
     30 C30        34.9163    2.9201  -12.5769 C.2         1 OZZ      -0.0116
     31 O31        33.5482    4.2954  -13.7011 O.2         1 OZZ      -0.4519
     32 H1         37.9112   -1.9896  -11.4994 H           1 OZZ       0.0667
     33 H2         37.2818   -0.1853  -12.7565 H           1 OZZ       0.0678
     34 H3         34.5567   -1.4601  -13.2649 H           1 OZZ       0.0999
     35 H4         35.0979   -3.0290  -11.1939 H           1 OZZ       0.0749
     36 H5         36.3097   -1.2450   -9.2023 H           1 OZZ       0.0477
     37 H6         37.7841   -3.3860  -13.2761 H           1 OZZ       0.2102
     38 H7         36.5239   -0.7152  -14.9147 H           1 OZZ       0.2101
     39 H8         36.1899   -4.1295   -9.2896 H           1 OZZ       0.0470
     40 H9         35.8207   -2.9110   -6.8986 H           1 OZZ       0.0643
     41 H10        37.4707   -2.4031   -7.3171 H           1 OZZ       0.0643
     42 H11        37.3960   -5.1266   -7.6430 H           1 OZZ       0.1867
     43 H12        39.7723   -9.1937   -4.4023 H           1 OZZ       0.1086
     44 H13        36.3368   -6.8343   -5.0735 H           1 OZZ       0.1563
     45 H14        40.5332   -5.0563   -6.6981 H           1 OZZ       0.3540
     46 H15        41.7402   -7.6662   -5.8951 H           1 OZZ       0.3497
     47 H16        33.4049    0.1161  -14.4647 H           1 OZZ       0.1185
     48 H17        32.7311    2.2752  -14.9255 H           1 OZZ       0.0387
     49 H18        35.9277    1.4912  -11.5795 H           1 OZZ       0.1185
     50 H19        35.3178    3.6674  -12.0568 H           1 OZZ       0.0387
@<TRIPOS>BOND
     1     1     2   1
     2     1     5   1
     3     1     8   1
     4     2     3   1
     5     2     9   1
     6     3     4   1
     7     3     7   1
     8     4     5   1
     9     5     6   1
    10     6    10   2
    11     7    26   1
    12     7    29   1
    13    10    11   1
    14    11    12   1
    15    12    13  am
    16    13    14   1
    17    13    23   2
    18    14    15  ar
    19    14    19  ar
    20    15    16  ar
    21    15    21   1
    22    16    17  ar
    23    16    22   1
    24    17    18  ar
    25    18    19  ar
    26    18    20   1
    27    20    24   2
    28    20    25   2
    29    26    27   2
    30    27    28   1
    31    28    30   1
    32    28    31   2
    33    29    30   2
    34     1    32   1
    35     2    33   1
    36     3    34   1
    37     5    35   1
    38     6    36   1
    39     8    37   1
    40     9    38   1
    41    10    39   1
    42    11    40   1
    43    11    41   1
    44    12    42   1
    45    17    43   1
    46    19    44   1
    47    21    45   1
    48    22    46   1
    49    26    47   1
    50    27    48   1
    51    29    49   1
    52    30    50   1
@<TRIPOS>SUBSTRUCTURE
     1  OZZ      1

