@<TRIPOS>MOLECULE
3ozt_ligand_021
    50    52
SMALL
GAST_HUCK
****
This file was generated by PARSER (from files_GN.cpp)

@<TRIPOS>ATOM
      1 C1         37.6214   -0.5662  -12.9119 C.3         1 OZZ       0.1189
      2 C2         37.1206    0.6365  -13.7314 C.3         1 OZZ       0.1403
      3 C3         35.5733    0.4246  -13.7879 C.3         1 OZZ       0.2027
      4 O4         35.2906   -0.8124  -13.1045 O.3         1 OZZ      -0.3296
      5 C5         36.4959   -1.5948  -13.0910 C.3         1 OZZ       0.1082
      6 C6         36.4277   -2.6237  -12.0642 C.2         1 OZZ      -0.0658
      7 N7         34.7987    1.4789  -13.2285 N.pl3       1 OZZ      -0.2105
      8 O8         38.8919   -1.0642  -13.3205 O.3         1 OZZ      -0.3846
      9 O9         37.7088    0.6766  -15.0359 O.3         1 OZZ      -0.3834
     10 C10        35.9397   -2.4063  -10.8369 C.2         1 OZZ      -0.0744
     11 C11        35.5179   -3.4861   -9.9633 C.3         1 OZZ       0.0473
     12 N12        34.5299   -4.4189  -10.4326 N.am        1 OZZ      -0.2765
     13 C13        33.9509   -4.5280  -11.6295 C.2         1 OZZ       0.2411
     14 C14        32.9035   -5.4012  -11.8087 C.ar        1 OZZ       0.2482
     15 C15        31.5683   -4.9589  -11.6558 C.ar        1 OZZ       0.3921
     16 C16        30.5070   -5.8330  -11.9449 C.ar        1 OZZ       0.3797
     17 C17        30.7734   -7.1151  -12.4544 C.ar        1 OZZ       0.1691
     18 C18        32.0990   -7.5812  -12.6333 C.ar        1 OZZ       0.2168
     19 C19        33.1541   -6.7136  -12.2666 C.ar        1 OZZ       0.1162
     20 N20        32.3405   -8.8219  -13.1551 N.2         1 OZZ      -0.1404
     21 O21        31.3146   -3.6912  -11.2247 O.3         1 OZZ      -0.1763
     22 O22        29.2272   -5.4508  -11.7066 O.3         1 OZZ      -0.1825
     23 O23        34.2498   -3.8259  -12.5988 O.2         1 OZZ      -0.3823
     24 O24        31.3753   -9.5849  -13.5771 O.2         1 OZZ      -0.4541
     25 O25        33.4514   -9.2484  -13.3481 O.2         1 OZZ      -0.4541
     26 C26        35.1082    1.9862  -12.0254 C.2         1 OZZ       0.0592
     27 C27        34.5461    3.1347  -11.5888 C.2         1 OZZ      -0.0116
     28 C28        33.6124    3.7520  -12.3759 C.2         1 OZZ       0.0683
     29 C29        33.7541    1.9876  -13.9030 C.2         1 OZZ       0.0592
     30 C30        33.1701    3.1395  -13.5148 C.2         1 OZZ      -0.0116
     31 O31        33.1749    4.8576  -12.0738 O.2         1 OZZ      -0.4519
     32 H1         37.6961   -0.2789  -11.8624 H           1 OZZ       0.0667
     33 H2         37.4063    1.5580  -13.2242 H           1 OZZ       0.0678
     34 H3         35.2982    0.2334  -14.8298 H           1 OZZ       0.0999
     35 H4         36.5871   -2.0680  -14.0778 H           1 OZZ       0.0749
     36 H5         36.6131   -3.5519  -12.3484 H           1 OZZ       0.0477
     37 H6         38.7953   -1.3008  -14.2673 H           1 OZZ       0.2102
     38 H7         37.1974    0.0495  -15.5890 H           1 OZZ       0.2101
     39 H8         35.7405   -1.4685  -10.5541 H           1 OZZ       0.0470
     40 H9         35.1253   -3.0494   -9.0326 H           1 OZZ       0.0643
     41 H10        36.4116   -4.0463   -9.6846 H           1 OZZ       0.0643
     42 H11        34.1667   -4.9925   -9.7320 H           1 OZZ       0.1867
     43 H12        29.9736   -7.7115  -12.6888 H           1 OZZ       0.1086
     44 H13        34.1244   -7.0268  -12.3666 H           1 OZZ       0.1563
     45 H14        30.3422   -3.5568  -11.2691 H           1 OZZ       0.3540
     46 H15        28.7059   -5.8068  -12.4528 H           1 OZZ       0.3497
     47 H16        35.7767    1.5436  -11.4353 H           1 OZZ       0.1185
     48 H17        34.7996    3.5161  -10.7036 H           1 OZZ       0.0387
     49 H18        33.3735    1.5289  -14.7026 H           1 OZZ       0.1185
     50 H19        32.4059    3.5162  -14.0367 H           1 OZZ       0.0387
@<TRIPOS>BOND
     1     1     2   1
     2     1     5   1
     3     1     8   1
     4     2     3   1
     5     2     9   1
     6     3     4   1
     7     3     7   1
     8     4     5   1
     9     5     6   1
    10     6    10   2
    11     7    26   1
    12     7    29   1
    13    10    11   1
    14    11    12   1
    15    12    13  am
    16    13    14   1
    17    13    23   2
    18    14    15  ar
    19    14    19  ar
    20    15    16  ar
    21    15    21   1
    22    16    17  ar
    23    16    22   1
    24    17    18  ar
    25    18    19  ar
    26    18    20   1
    27    20    24   2
    28    20    25   2
    29    26    27   2
    30    27    28   1
    31    28    30   1
    32    28    31   2
    33    29    30   2
    34     1    32   1
    35     2    33   1
    36     3    34   1
    37     5    35   1
    38     6    36   1
    39     8    37   1
    40     9    38   1
    41    10    39   1
    42    11    40   1
    43    11    41   1
    44    12    42   1
    45    17    43   1
    46    19    44   1
    47    21    45   1
    48    22    46   1
    49    26    47   1
    50    27    48   1
    51    29    49   1
    52    30    50   1
@<TRIPOS>SUBSTRUCTURE
     1  OZZ      1

