@<TRIPOS>MOLECULE
3ozt_ligand_010
    50    52
SMALL
GAST_HUCK
****
This file was generated by PARSER (from files_GN.cpp)

@<TRIPOS>ATOM
      1 C1         39.5073   -1.8546  -14.5283 C.3         1 OZZ       0.1189
      2 C2         40.3826   -3.1119  -14.5934 C.3         1 OZZ       0.1403
      3 C3         40.9388   -3.1811  -13.1530 C.3         1 OZZ       0.2027
      4 O4         39.9389   -2.6101  -12.2860 O.3         1 OZZ      -0.3296
      5 C5         38.9757   -1.8837  -13.0733 C.3         1 OZZ       0.1082
      6 C6         37.6870   -2.5587  -12.9444 C.2         1 OZZ      -0.0658
      7 N7         41.3106   -4.4953  -12.7437 N.pl3       1 OZZ      -0.2105
      8 O8         40.2848   -0.6834  -14.7935 O.3         1 OZZ      -0.3846
      9 O9         41.4037   -3.0287  -15.5871 O.3         1 OZZ      -0.3834
     10 C10        36.5365   -1.9456  -12.6106 C.2         1 OZZ      -0.0744
     11 C11        35.2922   -2.6633  -12.3976 C.3         1 OZZ       0.0473
     12 N12        35.3591   -3.5308  -11.2572 N.am        1 OZZ      -0.2765
     13 C13        35.4930   -3.1654   -9.9833 C.2         1 OZZ       0.2411
     14 C14        35.6208   -4.1132   -8.9549 C.ar        1 OZZ       0.2482
     15 C15        35.0100   -5.3981   -9.0038 C.ar        1 OZZ       0.3921
     16 C16        35.2159   -6.3332   -7.9669 C.ar        1 OZZ       0.3797
     17 C17        36.0030   -5.9939   -6.8573 C.ar        1 OZZ       0.1691
     18 C18        36.6173   -4.7238   -6.7522 C.ar        1 OZZ       0.2168
     19 C19        36.4103   -3.8080   -7.8145 C.ar        1 OZZ       0.1162
     20 N20        37.3712   -4.4029   -5.6599 N.2         1 OZZ      -0.1404
     21 O21        34.1779   -5.7725  -10.0083 O.3         1 OZZ      -0.1763
     22 O22        34.5862   -7.5325   -7.9681 O.3         1 OZZ      -0.1825
     23 O23        35.6036   -1.9703   -9.7220 O.2         1 OZZ      -0.3823
     24 O24        37.5501   -5.2311   -4.6666 O.2         1 OZZ      -0.4541
     25 O25        37.9023   -3.3313   -5.5279 O.2         1 OZZ      -0.4541
     26 C26        42.6029   -4.8116  -12.5662 C.2         1 OZZ       0.0592
     27 C27        42.9757   -6.0505  -12.1843 C.2         1 OZZ      -0.0116
     28 C28        42.0120   -6.9979  -11.9732 C.2         1 OZZ       0.0683
     29 C29        40.3686   -5.4346  -12.5487 C.2         1 OZZ       0.0592
     30 C30        40.6957   -6.6861  -12.1651 C.2         1 OZZ      -0.0116
     31 O31        42.3253   -8.1305  -11.6360 O.2         1 OZZ      -0.4519
     32 H1         38.7053   -1.8929  -15.2692 H           1 OZZ       0.0667
     33 H2         39.7558   -3.9781  -14.8107 H           1 OZZ       0.0678
     34 H3         41.7911   -2.4880  -13.0997 H           1 OZZ       0.0999
     35 H4         38.9176   -0.8615  -12.6814 H           1 OZZ       0.0749
     36 H5         37.6586   -3.5415  -13.1200 H           1 OZZ       0.0477
     37 H6         40.6883   -0.4193  -13.9388 H           1 OZZ       0.2102
     38 H7         41.8917   -3.8759  -15.5305 H           1 OZZ       0.2101
     39 H8         36.5400   -0.9526  -12.4900 H           1 OZZ       0.0470
     40 H9         35.0712   -3.2664  -13.2810 H           1 OZZ       0.0643
     41 H10        34.4711   -1.9542  -12.2698 H           1 OZZ       0.0643
     42 H11        35.3263   -4.4798  -11.4449 H           1 OZZ       0.1867
     43 H12        36.0996   -6.6825   -6.1056 H           1 OZZ       0.1086
     44 H13        36.8716   -2.8943   -7.7554 H           1 OZZ       0.1563
     45 H14        33.4850   -5.0732  -10.0381 H           1 OZZ       0.3540
     46 H15        34.9634   -8.0276   -8.7279 H           1 OZZ       0.3497
     47 H16        43.3242   -4.1449  -12.7259 H           1 OZZ       0.1185
     48 H17        43.9379   -6.2697  -12.0600 H           1 OZZ       0.0387
     49 H18        39.4055   -5.2267  -12.6892 H           1 OZZ       0.1185
     50 H19        39.9844   -7.3685  -12.0236 H           1 OZZ       0.0387
@<TRIPOS>BOND
     1     1     2   1
     2     1     5   1
     3     1     8   1
     4     2     3   1
     5     2     9   1
     6     3     4   1
     7     3     7   1
     8     4     5   1
     9     5     6   1
    10     6    10   2
    11     7    26   1
    12     7    29   1
    13    10    11   1
    14    11    12   1
    15    12    13  am
    16    13    14   1
    17    13    23   2
    18    14    15  ar
    19    14    19  ar
    20    15    16  ar
    21    15    21   1
    22    16    17  ar
    23    16    22   1
    24    17    18  ar
    25    18    19  ar
    26    18    20   1
    27    20    24   2
    28    20    25   2
    29    26    27   2
    30    27    28   1
    31    28    30   1
    32    28    31   2
    33    29    30   2
    34     1    32   1
    35     2    33   1
    36     3    34   1
    37     5    35   1
    38     6    36   1
    39     8    37   1
    40     9    38   1
    41    10    39   1
    42    11    40   1
    43    11    41   1
    44    12    42   1
    45    17    43   1
    46    19    44   1
    47    21    45   1
    48    22    46   1
    49    26    47   1
    50    27    48   1
    51    29    49   1
    52    30    50   1
@<TRIPOS>SUBSTRUCTURE
     1  OZZ      1

