@<TRIPOS>MOLECULE
3ozt_ligand_017
    50    52
SMALL
GAST_HUCK
****
This file was generated by PARSER (from files_GN.cpp)

@<TRIPOS>ATOM
      1 C1         40.4271  -11.3592   -3.0264 C.3         1 OZZ       0.1189
      2 C2         40.6697  -11.0766   -1.5352 C.3         1 OZZ       0.1403
      3 C3         41.1834   -9.6211   -1.5443 C.3         1 OZZ       0.2027
      4 O4         40.4737   -8.9787   -2.6193 O.3         1 OZZ      -0.3296
      5 C5         40.0241   -9.9618   -3.5641 C.3         1 OZZ       0.1082
      6 C6         38.5851   -9.7885   -3.7170 C.2         1 OZZ      -0.0658
      7 N7         41.0526   -8.9779   -0.2784 N.pl3       1 OZZ      -0.2105
      8 O8         41.6195  -11.8315   -3.6594 O.3         1 OZZ      -0.3846
      9 O9         41.5858  -11.9882   -0.9293 O.3         1 OZZ      -0.3834
     10 C10        38.0313   -9.0387   -4.6832 C.2         1 OZZ      -0.0744
     11 C11        36.5944   -8.8868   -4.8227 C.3         1 OZZ       0.0473
     12 N12        36.2364   -7.9941   -5.8831 N.am        1 OZZ      -0.2765
     13 C13        36.3084   -6.6634   -5.8564 C.2         1 OZZ       0.2411
     14 C14        35.9773   -5.8594   -6.9633 C.ar        1 OZZ       0.2482
     15 C15        35.1514   -6.3146   -8.0289 C.ar        1 OZZ       0.3921
     16 C16        34.8086   -5.4596   -9.0922 C.ar        1 OZZ       0.3797
     17 C17        35.2965   -4.1420   -9.1277 C.ar        1 OZZ       0.1691
     18 C18        36.1267   -3.6387   -8.1007 C.ar        1 OZZ       0.2168
     19 C19        36.4517   -4.5184   -7.0364 C.ar        1 OZZ       0.1162
     20 N20        36.5839   -2.3517   -8.1369 N.2         1 OZZ      -0.1404
     21 O21        34.5724   -7.5413   -8.0241 O.3         1 OZZ      -0.1763
     22 O22        33.9757   -5.8947  -10.0727 O.3         1 OZZ      -0.1825
     23 O23        36.6936   -6.1281   -4.8207 O.2         1 OZZ      -0.3823
     24 O24        36.2854   -1.5266   -9.1063 O.2         1 OZZ      -0.4541
     25 O25        37.2789   -1.8835   -7.2724 O.2         1 OZZ      -0.4541
     26 C26        40.0205   -8.1576   -0.0134 C.2         1 OZZ       0.0592
     27 C27        39.9240   -7.5122    1.1672 C.2         1 OZZ      -0.0116
     28 C28        40.8852   -7.7187    2.1181 C.2         1 OZZ       0.0683
     29 C29        41.9627   -9.2205    0.6780 C.2         1 OZZ       0.0592
     30 C30        41.9037   -8.5975    1.8749 C.2         1 OZZ      -0.0116
     31 O31        40.8292   -7.1270    3.1885 O.2         1 OZZ      -0.4519
     32 H1         39.6488  -12.1167   -3.1608 H           1 OZZ       0.0667
     33 H2         39.7190  -11.1259   -0.9952 H           1 OZZ       0.0678
     34 H3         42.2348   -9.6151   -1.8608 H           1 OZZ       0.0999
     35 H4         40.5364   -9.7769   -4.5132 H           1 OZZ       0.0749
     36 H5         37.9893  -10.2039   -3.0359 H           1 OZZ       0.0477
     37 H6         41.3805  -11.9583   -4.6031 H           1 OZZ       0.2102
     38 H7         41.1400  -12.8613   -0.9685 H           1 OZZ       0.2101
     39 H8         38.6260   -8.5740   -5.3317 H           1 OZZ       0.0470
     40 H9         36.1540   -8.5395   -3.8840 H           1 OZZ       0.0643
     41 H10        36.1671   -9.8664   -5.0496 H           1 OZZ       0.0643
     42 H11        35.9374   -8.4149   -6.7022 H           1 OZZ       0.1867
     43 H12        35.0283   -3.5454   -9.9123 H           1 OZZ       0.1086
     44 H13        37.0522   -4.1595   -6.2877 H           1 OZZ       0.1563
     45 H14        34.9866   -8.0244   -8.7696 H           1 OZZ       0.3540
     46 H15        33.3314   -5.1688  -10.2014 H           1 OZZ       0.3497
     47 H16        39.2877   -8.0190   -0.6740 H           1 OZZ       0.1185
     48 H17        39.1513   -6.9102    1.3456 H           1 OZZ       0.0387
     49 H18        42.7077   -9.8625    0.5255 H           1 OZZ       0.1185
     50 H19        42.5883   -8.7869    2.5709 H           1 OZZ       0.0387
@<TRIPOS>BOND
     1     1     2   1
     2     1     5   1
     3     1     8   1
     4     2     3   1
     5     2     9   1
     6     3     4   1
     7     3     7   1
     8     4     5   1
     9     5     6   1
    10     6    10   2
    11     7    26   1
    12     7    29   1
    13    10    11   1
    14    11    12   1
    15    12    13  am
    16    13    14   1
    17    13    23   2
    18    14    15  ar
    19    14    19  ar
    20    15    16  ar
    21    15    21   1
    22    16    17  ar
    23    16    22   1
    24    17    18  ar
    25    18    19  ar
    26    18    20   1
    27    20    24   2
    28    20    25   2
    29    26    27   2
    30    27    28   1
    31    28    30   1
    32    28    31   2
    33    29    30   2
    34     1    32   1
    35     2    33   1
    36     3    34   1
    37     5    35   1
    38     6    36   1
    39     8    37   1
    40     9    38   1
    41    10    39   1
    42    11    40   1
    43    11    41   1
    44    12    42   1
    45    17    43   1
    46    19    44   1
    47    21    45   1
    48    22    46   1
    49    26    47   1
    50    27    48   1
    51    29    49   1
    52    30    50   1
@<TRIPOS>SUBSTRUCTURE
     1  OZZ      1

