@<TRIPOS>MOLECULE
3ozt_ligand_083
    50    52
SMALL
GAST_HUCK
****
This file was generated by PARSER (from files_GN.cpp)

@<TRIPOS>ATOM
      1 C1         39.0753    1.5065   -4.6619 C.3         1 OZZ       0.1189
      2 C2         39.0683    1.3094   -6.1850 C.3         1 OZZ       0.1403
      3 C3         40.3933    0.5438   -6.4223 C.3         1 OZZ       0.2027
      4 O4         40.6851   -0.1760   -5.2113 O.3         1 OZZ      -0.3296
      5 C5         39.7727    0.2123   -4.1672 C.3         1 OZZ       0.1082
      6 C6         38.8665   -0.8957   -3.8733 C.2         1 OZZ      -0.0658
      7 N7         40.4052   -0.3341   -7.5441 N.pl3       1 OZZ      -0.2105
      8 O8         39.8350    2.6610   -4.2999 O.3         1 OZZ      -0.3846
      9 O9         38.9860    2.5273   -6.9241 O.3         1 OZZ      -0.3834
     10 C10        39.2893   -2.1587   -3.6950 C.2         1 OZZ      -0.0744
     11 C11        38.3884   -3.2666   -3.4418 C.3         1 OZZ       0.0473
     12 N12        37.6045   -3.5793   -4.6089 N.am        1 OZZ      -0.2765
     13 C13        37.5399   -4.7417   -5.2496 C.2         1 OZZ       0.2411
     14 C14        36.7096   -4.9206   -6.3685 C.ar        1 OZZ       0.2482
     15 C15        36.0579   -6.1556   -6.6202 C.ar        1 OZZ       0.3921
     16 C16        35.2625   -6.3300   -7.7686 C.ar        1 OZZ       0.3797
     17 C17        35.1309   -5.2878   -8.6998 C.ar        1 OZZ       0.1691
     18 C18        35.7547   -4.0337   -8.4870 C.ar        1 OZZ       0.2168
     19 C19        36.5065   -3.8694   -7.2974 C.ar        1 OZZ       0.1162
     20 N20        35.6274   -3.0301   -9.4071 N.2         1 OZZ      -0.1404
     21 O21        36.1158   -7.1837   -5.7341 O.3         1 OZZ      -0.1763
     22 O22        34.5746   -7.4850   -7.9435 O.3         1 OZZ      -0.1825
     23 O23        38.2183   -5.6869   -4.8706 O.2         1 OZZ      -0.3823
     24 O24        35.0253   -3.2059  -10.5526 O.2         1 OZZ      -0.4541
     25 O25        36.0650   -1.9248   -9.2267 O.2         1 OZZ      -0.4541
     26 C26        41.2880   -0.1618   -8.5430 C.2         1 OZZ       0.0592
     27 C27        41.3067   -0.9817   -9.6116 C.2         1 OZZ      -0.0116
     28 C28        40.4022   -2.0038   -9.6845 C.2         1 OZZ       0.0683
     29 C29        39.5705   -1.3859   -7.5870 C.2         1 OZZ       0.0592
     30 C30        39.5400   -2.2160   -8.6468 C.2         1 OZZ      -0.0116
     31 O31        40.3804   -2.7399  -10.6590 O.2         1 OZZ      -0.4519
     32 H1         38.0587    1.6306   -4.2749 H           1 OZZ       0.0667
     33 H2         38.2042    0.6985   -6.4543 H           1 OZZ       0.0678
     34 H3         41.1859    1.3005   -6.4870 H           1 OZZ       0.0999
     35 H4         40.3504    0.4218   -3.2619 H           1 OZZ       0.0749
     36 H5         37.8929   -0.7061   -3.7888 H           1 OZZ       0.0477
     37 H6         39.7625    2.7171   -3.3244 H           1 OZZ       0.2102
     38 H7         39.7576    3.0612   -6.6446 H           1 OZZ       0.2101
     39 H8         40.2639   -2.3550   -3.7491 H           1 OZZ       0.0470
     40 H9         37.7081   -3.0040   -2.6277 H           1 OZZ       0.0643
     41 H10        38.9785   -4.1218   -3.1009 H           1 OZZ       0.0643
     42 H11        37.0277   -2.8661   -4.9293 H           1 OZZ       0.1867
     43 H12        34.5442   -5.4423   -9.5224 H           1 OZZ       0.1086
     44 H13        36.9549   -2.9675   -7.1264 H           1 OZZ       0.1563
     45 H14        35.4809   -6.9355   -5.0308 H           1 OZZ       0.3540
     46 H15        34.9046   -7.8696   -8.7854 H           1 OZZ       0.3497
     47 H16        41.9696    0.5643   -8.5047 H           1 OZZ       0.1185
     48 H17        41.9816   -0.8504  -10.3329 H           1 OZZ       0.0387
     49 H18        38.9581   -1.5787   -6.8255 H           1 OZZ       0.1185
     50 H19        38.9251   -2.9974   -8.6600 H           1 OZZ       0.0387
@<TRIPOS>BOND
     1     1     2   1
     2     1     5   1
     3     1     8   1
     4     2     3   1
     5     2     9   1
     6     3     4   1
     7     3     7   1
     8     4     5   1
     9     5     6   1
    10     6    10   2
    11     7    26   1
    12     7    29   1
    13    10    11   1
    14    11    12   1
    15    12    13  am
    16    13    14   1
    17    13    23   2
    18    14    15  ar
    19    14    19  ar
    20    15    16  ar
    21    15    21   1
    22    16    17  ar
    23    16    22   1
    24    17    18  ar
    25    18    19  ar
    26    18    20   1
    27    20    24   2
    28    20    25   2
    29    26    27   2
    30    27    28   1
    31    28    30   1
    32    28    31   2
    33    29    30   2
    34     1    32   1
    35     2    33   1
    36     3    34   1
    37     5    35   1
    38     6    36   1
    39     8    37   1
    40     9    38   1
    41    10    39   1
    42    11    40   1
    43    11    41   1
    44    12    42   1
    45    17    43   1
    46    19    44   1
    47    21    45   1
    48    22    46   1
    49    26    47   1
    50    27    48   1
    51    29    49   1
    52    30    50   1
@<TRIPOS>SUBSTRUCTURE
     1  OZZ      1

