@<TRIPOS>MOLECULE
3ozt_ligand_001
    50    52
SMALL
GAST_HUCK
****
This file was generated by PARSER (from files_GN.cpp)

@<TRIPOS>ATOM
      1 C1         35.9676   -2.1333  -13.3838 C.3         1 OZZ       0.1189
      2 C2         36.1470   -0.6033  -13.2420 C.3         1 OZZ       0.1403
      3 C3         34.7392   -0.0539  -13.5962 C.3         1 OZZ       0.2027
      4 O4         33.8497   -1.0492  -13.0860 O.3         1 OZZ      -0.3296
      5 C5         34.4257   -2.3318  -13.3642 C.3         1 OZZ       0.1082
      6 C6         33.9329   -3.2481  -12.3483 C.2         1 OZZ      -0.0658
      7 N7         34.3091    1.2292  -13.1420 N.pl3       1 OZZ      -0.2105
      8 O8         36.5422   -2.6288  -14.5938 O.3         1 OZZ      -0.3846
      9 O9         37.1569   -0.0234  -14.0772 O.3         1 OZZ      -0.3834
     10 C10        33.4017   -4.4511  -12.6160 C.2         1 OZZ      -0.0744
     11 C11        32.7621   -5.3011  -11.6222 C.3         1 OZZ       0.0473
     12 N12        33.4387   -5.3273  -10.3626 N.am        1 OZZ      -0.2765
     13 C13        34.6290   -5.8442  -10.1097 C.2         1 OZZ       0.2411
     14 C14        35.2355   -5.5368   -8.9079 C.ar        1 OZZ       0.2482
     15 C15        35.2737   -6.4658   -7.8460 C.ar        1 OZZ       0.3921
     16 C16        35.9104   -6.1257   -6.6377 C.ar        1 OZZ       0.3797
     17 C17        36.5109   -4.8629   -6.4841 C.ar        1 OZZ       0.1691
     18 C18        36.4566   -3.8934   -7.5150 C.ar        1 OZZ       0.2168
     19 C19        35.8077   -4.2553   -8.7242 C.ar        1 OZZ       0.1162
     20 N20        37.0048   -2.6549   -7.3431 N.2         1 OZZ      -0.1404
     21 O21        34.6357   -7.6597   -7.9291 O.3         1 OZZ      -0.1763
     22 O22        35.9091   -6.9853   -5.5910 O.3         1 OZZ      -0.1825
     23 O23        35.2447   -6.4945  -10.9417 O.2         1 OZZ      -0.3823
     24 O24        37.6128   -2.3045   -6.2403 O.2         1 OZZ      -0.4541
     25 O25        36.9629   -1.8014   -8.1902 O.2         1 OZZ      -0.4541
     26 C26        34.6071    1.6941  -11.9147 C.2         1 OZZ       0.0592
     27 C27        34.1855    2.9046  -11.5041 C.2         1 OZZ      -0.0116
     28 C28        33.3831    3.6456  -12.3327 C.2         1 OZZ       0.0683
     29 C29        33.4180    1.9109  -13.8897 C.2         1 OZZ       0.0592
     30 C30        32.9510    3.1137  -13.5091 C.2         1 OZZ      -0.0116
     31 O31        33.0443    4.7805  -12.0122 O.2         1 OZZ      -0.4519
     32 H1         36.4585   -2.6534  -12.5552 H           1 OZZ       0.0667
     33 H2         36.4139   -0.4015  -12.2036 H           1 OZZ       0.0678
     34 H3         34.6802   -0.0888  -14.6933 H           1 OZZ       0.0999
     35 H4         34.0748   -2.6352  -14.3558 H           1 OZZ       0.0749
     36 H5         33.9804   -2.9379  -11.4036 H           1 OZZ       0.0477
     37 H6         36.0719   -2.1441  -15.3024 H           1 OZZ       0.2102
     38 H7         36.9030   -0.2315  -15.0041 H           1 OZZ       0.2101
     39 H8         33.3742   -4.7645  -13.5584 H           1 OZZ       0.0470
     40 H9         32.6458   -6.3202  -12.0022 H           1 OZZ       0.0643
     41 H10        31.7583   -4.9053  -11.4478 H           1 OZZ       0.0643
     42 H11        33.0136   -4.8439   -9.6405 H           1 OZZ       0.1867
     43 H12        36.9557   -4.6432   -5.5890 H           1 OZZ       0.1086
     44 H13        35.7622   -3.5765   -9.4885 H           1 OZZ       0.1563
     45 H14        34.9753   -8.0796   -8.7474 H           1 OZZ       0.3540
     46 H15        34.9603   -7.1845   -5.4456 H           1 OZZ       0.3497
     47 H16        35.1166    1.1314  -11.2677 H           1 OZZ       0.1185
     48 H17        34.4125    3.2380  -10.5919 H           1 OZZ       0.0387
     49 H18        33.0660    1.5318  -14.7396 H           1 OZZ       0.1185
     50 H19        32.2809    3.5898  -14.0698 H           1 OZZ       0.0387
@<TRIPOS>BOND
     1     1     2   1
     2     1     5   1
     3     1     8   1
     4     2     3   1
     5     2     9   1
     6     3     4   1
     7     3     7   1
     8     4     5   1
     9     5     6   1
    10     6    10   2
    11     7    26   1
    12     7    29   1
    13    10    11   1
    14    11    12   1
    15    12    13  am
    16    13    14   1
    17    13    23   2
    18    14    15  ar
    19    14    19  ar
    20    15    16  ar
    21    15    21   1
    22    16    17  ar
    23    16    22   1
    24    17    18  ar
    25    18    19  ar
    26    18    20   1
    27    20    24   2
    28    20    25   2
    29    26    27   2
    30    27    28   1
    31    28    30   1
    32    28    31   2
    33    29    30   2
    34     1    32   1
    35     2    33   1
    36     3    34   1
    37     5    35   1
    38     6    36   1
    39     8    37   1
    40     9    38   1
    41    10    39   1
    42    11    40   1
    43    11    41   1
    44    12    42   1
    45    17    43   1
    46    19    44   1
    47    21    45   1
    48    22    46   1
    49    26    47   1
    50    27    48   1
    51    29    49   1
    52    30    50   1
@<TRIPOS>SUBSTRUCTURE
     1  OZZ      1

