@<TRIPOS>MOLECULE
3ozt_ligand_002
    50    52
SMALL
GAST_HUCK
****
This file was generated by PARSER (from files_GN.cpp)

@<TRIPOS>ATOM
      1 C1         35.5391   -0.9894  -11.3694 C.3         1 OZZ       0.1189
      2 C2         35.1391   -1.4734  -12.7716 C.3         1 OZZ       0.1403
      3 C3         35.7295   -2.9122  -12.7873 C.3         1 OZZ       0.2027
      4 O4         36.9351   -2.8383  -12.0004 O.3         1 OZZ      -0.3296
      5 C5         36.9449   -1.6237  -11.2368 C.3         1 OZZ       0.1082
      6 C6         37.4872   -1.8396   -9.9002 C.2         1 OZZ      -0.0658
      7 N7         34.8290   -3.9387  -12.3616 N.pl3       1 OZZ      -0.2105
      8 O8         35.5437    0.4284  -11.1864 O.3         1 OZZ      -0.3846
      9 O9         35.7540   -0.6572  -13.7741 O.3         1 OZZ      -0.3834
     10 C10        36.7952   -2.2385   -8.8212 C.2         1 OZZ      -0.0744
     11 C11        37.3637   -2.3727   -7.4946 C.3         1 OZZ       0.0473
     12 N12        37.0747   -3.6821   -6.9988 N.am        1 OZZ      -0.2765
     13 C13        37.9210   -4.6391   -6.6382 C.2         1 OZZ       0.2411
     14 C14        37.4745   -5.9090   -6.2355 C.ar        1 OZZ       0.2482
     15 C15        36.2516   -6.4712   -6.6948 C.ar        1 OZZ       0.3921
     16 C16        35.8537   -7.7636   -6.3097 C.ar        1 OZZ       0.3797
     17 C17        36.6446   -8.5072   -5.4142 C.ar        1 OZZ       0.1691
     18 C18        37.8531   -7.9825   -4.8951 C.ar        1 OZZ       0.2168
     19 C19        38.2500   -6.6926   -5.3349 C.ar        1 OZZ       0.1162
     20 N20        38.6055   -8.7025   -4.0084 N.2         1 OZZ      -0.1404
     21 O21        35.4330   -5.8153   -7.5557 O.3         1 OZZ      -0.1763
     22 O22        34.7085   -8.2916   -6.8129 O.3         1 OZZ      -0.1825
     23 O23        39.1246   -4.4103   -6.6530 O.2         1 OZZ      -0.3823
     24 O24        38.2560   -9.8959   -3.5980 O.2         1 OZZ      -0.4541
     25 O25        39.6299   -8.2831   -3.5327 O.2         1 OZZ      -0.4541
     26 C26        35.1083   -4.7473  -11.3267 C.2         1 OZZ       0.0592
     27 C27        34.4049   -5.8804  -11.1032 C.2         1 OZZ      -0.0116
     28 C28        33.3562   -6.1784  -11.9212 C.2         1 OZZ       0.0683
     29 C29        33.7524   -4.2095  -13.1203 C.2         1 OZZ       0.0592
     30 C30        33.0071   -5.3092  -12.9202 C.2         1 OZZ      -0.0116
     31 O31        32.7124   -7.1979  -11.7457 O.2         1 OZZ      -0.4519
     32 H1         34.8307   -1.4148  -10.6565 H           1 OZZ       0.0667
     33 H2         34.0567   -1.4419  -12.9209 H           1 OZZ       0.0678
     34 H3         36.0537   -3.1553  -13.8088 H           1 OZZ       0.0999
     35 H4         37.6419   -0.9667  -11.7700 H           1 OZZ       0.0749
     36 H5         38.4617   -1.6830   -9.7935 H           1 OZZ       0.0477
     37 H6         36.2004    0.7810  -11.8223 H           1 OZZ       0.2102
     38 H7         35.4753   -1.0168  -14.6418 H           1 OZZ       0.2101
     39 H8         35.8310   -2.4424   -8.9157 H           1 OZZ       0.0470
     40 H9         36.8809   -1.6488   -6.8340 H           1 OZZ       0.0643
     41 H10        38.4297   -2.1533   -7.4824 H           1 OZZ       0.0643
     42 H11        36.1319   -3.8947   -6.9301 H           1 OZZ       0.1867
     43 H12        36.3252   -9.4363   -5.1316 H           1 OZZ       0.1086
     44 H13        39.1247   -6.3037   -4.9694 H           1 OZZ       0.1563
     45 H14        35.7567   -6.0610   -8.4458 H           1 OZZ       0.3540
     46 H15        34.8065   -9.2634   -6.7545 H           1 OZZ       0.3497
     47 H16        35.8327   -4.5362  -10.6866 H           1 OZZ       0.1185
     48 H17        34.6370   -6.4700  -10.3414 H           1 OZZ       0.0387
     49 H18        33.5023   -3.6029  -13.8751 H           1 OZZ       0.1185
     50 H19        32.2240   -5.5022  -13.5105 H           1 OZZ       0.0387
@<TRIPOS>BOND
     1     1     2   1
     2     1     5   1
     3     1     8   1
     4     2     3   1
     5     2     9   1
     6     3     4   1
     7     3     7   1
     8     4     5   1
     9     5     6   1
    10     6    10   2
    11     7    26   1
    12     7    29   1
    13    10    11   1
    14    11    12   1
    15    12    13  am
    16    13    14   1
    17    13    23   2
    18    14    15  ar
    19    14    19  ar
    20    15    16  ar
    21    15    21   1
    22    16    17  ar
    23    16    22   1
    24    17    18  ar
    25    18    19  ar
    26    18    20   1
    27    20    24   2
    28    20    25   2
    29    26    27   2
    30    27    28   1
    31    28    30   1
    32    28    31   2
    33    29    30   2
    34     1    32   1
    35     2    33   1
    36     3    34   1
    37     5    35   1
    38     6    36   1
    39     8    37   1
    40     9    38   1
    41    10    39   1
    42    11    40   1
    43    11    41   1
    44    12    42   1
    45    17    43   1
    46    19    44   1
    47    21    45   1
    48    22    46   1
    49    26    47   1
    50    27    48   1
    51    29    49   1
    52    30    50   1
@<TRIPOS>SUBSTRUCTURE
     1  OZZ      1

