@<TRIPOS>MOLECULE
3ozt_ligand_058
    50    52
SMALL
GAST_HUCK
****
This file was generated by PARSER (from files_GN.cpp)

@<TRIPOS>ATOM
      1 C1         35.6148   -7.2528   -6.1269 C.3         1 OZZ       0.1189
      2 C2         36.5129   -7.9487   -5.0933 C.3         1 OZZ       0.1403
      3 C3         37.7435   -8.3930   -5.9238 C.3         1 OZZ       0.2027
      4 O4         37.8584   -7.4237   -6.9911 O.3         1 OZZ      -0.3296
      5 C5         36.6310   -6.6883   -7.1483 C.3         1 OZZ       0.1082
      6 C6         36.9337   -5.2742   -6.9635 C.2         1 OZZ      -0.0658
      7 N7         38.9168   -8.5731   -5.1261 N.pl3       1 OZZ      -0.2105
      8 O8         34.7065   -8.1526   -6.7667 O.3         1 OZZ      -0.3846
      9 O9         35.8560   -9.0349   -4.4381 O.3         1 OZZ      -0.3834
     10 C10        36.5547   -4.3150   -7.8290 C.2         1 OZZ      -0.0744
     11 C11        36.9033   -2.9109   -7.6973 C.3         1 OZZ       0.0473
     12 N12        37.3144   -2.3211   -8.9435 N.am        1 OZZ      -0.2765
     13 C13        36.5159   -1.9879   -9.9587 C.2         1 OZZ       0.2411
     14 C14        37.0204   -1.3512  -11.0915 C.ar        1 OZZ       0.2482
     15 C15        36.4147   -0.1705  -11.6109 C.ar        1 OZZ       0.3921
     16 C16        36.9502    0.4634  -12.7486 C.ar        1 OZZ       0.3797
     17 C17        38.0599   -0.0982  -13.4058 C.ar        1 OZZ       0.1691
     18 C18        38.6917   -1.2711  -12.9317 C.ar        1 OZZ       0.2168
     19 C19        38.1560   -1.8745  -11.7640 C.ar        1 OZZ       0.1162
     20 N20        39.7726   -1.7877  -13.5781 N.2         1 OZZ      -0.1404
     21 O21        35.3605    0.4135  -10.9798 O.3         1 OZZ      -0.1763
     22 O22        36.4430    1.6296  -13.2229 O.3         1 OZZ      -0.1825
     23 O23        35.3123   -2.2101   -9.8698 O.2         1 OZZ      -0.3823
     24 O24        40.2656   -1.2555  -14.6693 O.2         1 OZZ      -0.4541
     25 O25        40.3374   -2.7847  -13.2028 O.2         1 OZZ      -0.4541
     26 C26        38.9023   -9.4930   -4.1431 C.2         1 OZZ       0.0592
     27 C27        39.9994   -9.7541   -3.4053 C.2         1 OZZ      -0.0116
     28 C28        41.1541   -9.0715   -3.6599 C.2         1 OZZ       0.0683
     29 C29        40.0498   -7.8869   -5.3599 C.2         1 OZZ       0.0592
     30 C30        41.1730   -8.1208   -4.6527 C.2         1 OZZ      -0.0116
     31 O31        42.1699   -9.3234   -3.0333 O.2         1 OZZ      -0.4519
     32 H1         35.0252   -6.4624   -5.6582 H           1 OZZ       0.0667
     33 H2         36.8192   -7.2155   -4.3359 H           1 OZZ       0.0678
     34 H3         37.5064   -9.3343   -6.4244 H           1 OZZ       0.0999
     35 H4         36.2655   -6.8748   -8.1667 H           1 OZZ       0.0749
     36 H5         37.4656   -5.0146   -6.1616 H           1 OZZ       0.0477
     37 H6         35.1805   -8.9955   -6.9166 H           1 OZZ       0.2102
     38 H7         35.6400   -9.6692   -5.1574 H           1 OZZ       0.2101
     39 H8         35.9520   -4.5593   -8.5897 H           1 OZZ       0.0470
     40 H9         37.7341   -2.7737   -6.9918 H           1 OZZ       0.0643
     41 H10        36.0419   -2.3628   -7.2859 H           1 OZZ       0.0643
     42 H11        38.2424   -2.0509   -9.0069 H           1 OZZ       0.1867
     43 H12        38.4115    0.3836  -14.2387 H           1 OZZ       0.1086
     44 H13        38.5956   -2.7249  -11.4110 H           1 OZZ       0.1563
     45 H14        34.6240    0.3739  -11.6287 H           1 OZZ       0.3540
     46 H15        35.6409    1.8297  -12.6959 H           1 OZZ       0.3497
     47 H16        38.0792  -10.0270   -3.9551 H           1 OZZ       0.1185
     48 H17        39.9643  -10.4423   -2.6861 H           1 OZZ       0.0387
     49 H18        40.0925   -7.1790   -6.0563 H           1 OZZ       0.1185
     50 H19        42.0100   -7.6139   -4.8472 H           1 OZZ       0.0387
@<TRIPOS>BOND
     1     1     2   1
     2     1     5   1
     3     1     8   1
     4     2     3   1
     5     2     9   1
     6     3     4   1
     7     3     7   1
     8     4     5   1
     9     5     6   1
    10     6    10   2
    11     7    26   1
    12     7    29   1
    13    10    11   1
    14    11    12   1
    15    12    13  am
    16    13    14   1
    17    13    23   2
    18    14    15  ar
    19    14    19  ar
    20    15    16  ar
    21    15    21   1
    22    16    17  ar
    23    16    22   1
    24    17    18  ar
    25    18    19  ar
    26    18    20   1
    27    20    24   2
    28    20    25   2
    29    26    27   2
    30    27    28   1
    31    28    30   1
    32    28    31   2
    33    29    30   2
    34     1    32   1
    35     2    33   1
    36     3    34   1
    37     5    35   1
    38     6    36   1
    39     8    37   1
    40     9    38   1
    41    10    39   1
    42    11    40   1
    43    11    41   1
    44    12    42   1
    45    17    43   1
    46    19    44   1
    47    21    45   1
    48    22    46   1
    49    26    47   1
    50    27    48   1
    51    29    49   1
    52    30    50   1
@<TRIPOS>SUBSTRUCTURE
     1  OZZ      1

