@<TRIPOS>MOLECULE
3ozt_ligand_028
    50    52
SMALL
GAST_HUCK
****
This file was generated by PARSER (from files_GN.cpp)

@<TRIPOS>ATOM
      1 C1         39.1474   -2.1304  -13.0445 C.3         1 OZZ       0.1189
      2 C2         40.2703   -1.6360  -13.9759 C.3         1 OZZ       0.1403
      3 C3         39.8077   -0.2022  -14.3742 C.3         1 OZZ       0.2027
      4 O4         38.5790    0.0530  -13.6773 O.3         1 OZZ      -0.3296
      5 C5         37.9666   -1.2227  -13.4443 C.3         1 OZZ       0.1082
      6 C6         36.9585   -1.0779  -12.4072 C.2         1 OZZ      -0.0658
      7 N7         40.7389    0.8505  -14.1006 N.pl3       1 OZZ      -0.2105
      8 O8         38.8412   -3.5145  -13.1764 O.3         1 OZZ      -0.3846
      9 O9         40.4505   -2.4742  -15.1201 O.3         1 OZZ      -0.3834
     10 C10        35.7758   -1.7171  -12.4156 C.2         1 OZZ      -0.0744
     11 C11        34.8030   -1.6009  -11.3403 C.3         1 OZZ       0.0473
     12 N12        34.9039   -2.6927  -10.4167 N.am        1 OZZ      -0.2765
     13 C13        35.9415   -2.9726   -9.6312 C.2         1 OZZ       0.2411
     14 C14        35.9291   -4.0237   -8.6991 C.ar        1 OZZ       0.2482
     15 C15        35.2252   -5.2383   -8.9056 C.ar        1 OZZ       0.3921
     16 C16        35.2500   -6.2621   -7.9312 C.ar        1 OZZ       0.3797
     17 C17        35.9861   -6.0894   -6.7492 C.ar        1 OZZ       0.1691
     18 C18        36.7238   -4.9094   -6.5079 C.ar        1 OZZ       0.2168
     19 C19        36.6723   -3.8917   -7.4902 C.ar        1 OZZ       0.1162
     20 N20        37.4494   -4.7671   -5.3635 N.2         1 OZZ      -0.1404
     21 O21        34.5538   -5.4969  -10.0571 O.3         1 OZZ      -0.1763
     22 O22        34.5414   -7.4049   -8.0921 O.3         1 OZZ      -0.1825
     23 O23        36.9297   -2.2416   -9.6902 O.2         1 OZZ      -0.3823
     24 O24        37.5334   -5.7066   -4.4635 O.2         1 OZZ      -0.4541
     25 O25        38.0872   -3.7768   -5.1119 O.2         1 OZZ      -0.4541
     26 C26        41.0618    1.7453  -15.0477 C.2         1 OZZ       0.0592
     27 C27        41.9342    2.7444  -14.7982 C.2         1 OZZ      -0.0116
     28 C28        42.4903    2.8426  -13.5563 C.2         1 OZZ       0.0683
     29 C29        41.2482    0.9891  -12.8642 C.2         1 OZZ       0.0592
     30 C30        42.1319    1.9647  -12.5735 C.2         1 OZZ      -0.0116
     31 O31        43.3190    3.7177  -13.3242 O.2         1 OZZ      -0.4519
     32 H1         39.4346   -1.9388  -12.0042 H           1 OZZ       0.0667
     33 H2         41.2222   -1.6300  -13.4395 H           1 OZZ       0.0678
     34 H3         39.5291   -0.2221  -15.4367 H           1 OZZ       0.0999
     35 H4         37.5183   -1.5818  -14.3793 H           1 OZZ       0.0749
     36 H5         37.1875   -0.5007  -11.6338 H           1 OZZ       0.0477
     37 H6         38.5419   -3.6344  -14.0983 H           1 OZZ       0.2102
     38 H7         39.6021   -2.4690  -15.6031 H           1 OZZ       0.2101
     39 H8         35.5721   -2.3545  -13.1540 H           1 OZZ       0.0470
     40 H9         33.8034   -1.6087  -11.7782 H           1 OZZ       0.0643
     41 H10        34.9077   -0.6507  -10.8031 H           1 OZZ       0.0643
     42 H11        34.1044   -3.2216  -10.3034 H           1 OZZ       0.1867
     43 H12        35.9718   -6.8432   -6.0612 H           1 OZZ       0.1086
     44 H13        37.1784   -3.0217   -7.3113 H           1 OZZ       0.1563
     45 H14        33.6693   -5.1094   -9.9155 H           1 OZZ       0.3540
     46 H15        34.8873   -7.8248   -8.9136 H           1 OZZ       0.3497
     47 H16        40.6457    1.7081  -15.9522 H           1 OZZ       0.1185
     48 H17        42.1475    3.4079  -15.5083 H           1 OZZ       0.0387
     49 H18        40.9875    0.3682  -12.1290 H           1 OZZ       0.1185
     50 H19        42.5052    2.0452  -11.6542 H           1 OZZ       0.0387
@<TRIPOS>BOND
     1     1     2   1
     2     1     5   1
     3     1     8   1
     4     2     3   1
     5     2     9   1
     6     3     4   1
     7     3     7   1
     8     4     5   1
     9     5     6   1
    10     6    10   2
    11     7    26   1
    12     7    29   1
    13    10    11   1
    14    11    12   1
    15    12    13  am
    16    13    14   1
    17    13    23   2
    18    14    15  ar
    19    14    19  ar
    20    15    16  ar
    21    15    21   1
    22    16    17  ar
    23    16    22   1
    24    17    18  ar
    25    18    19  ar
    26    18    20   1
    27    20    24   2
    28    20    25   2
    29    26    27   2
    30    27    28   1
    31    28    30   1
    32    28    31   2
    33    29    30   2
    34     1    32   1
    35     2    33   1
    36     3    34   1
    37     5    35   1
    38     6    36   1
    39     8    37   1
    40     9    38   1
    41    10    39   1
    42    11    40   1
    43    11    41   1
    44    12    42   1
    45    17    43   1
    46    19    44   1
    47    21    45   1
    48    22    46   1
    49    26    47   1
    50    27    48   1
    51    29    49   1
    52    30    50   1
@<TRIPOS>SUBSTRUCTURE
     1  OZZ      1

