@<TRIPOS>MOLECULE
3ozt_ligand_073
    50    52
SMALL
GAST_HUCK
****
This file was generated by PARSER (from files_GN.cpp)

@<TRIPOS>ATOM
      1 C1         35.2808   -1.8998  -13.8154 C.3         1 OZZ       0.1189
      2 C2         34.5983   -0.5572  -14.0983 C.3         1 OZZ       0.1403
      3 C3         34.4294    0.0186  -12.6820 C.3         1 OZZ       0.2027
      4 O4         35.5796   -0.4253  -11.9329 O.3         1 OZZ      -0.3296
      5 C5         36.1226   -1.6178  -12.5376 C.3         1 OZZ       0.1082
      6 C6         37.5498   -1.4401  -12.7842 C.2         1 OZZ      -0.0658
      7 N7         34.2679    1.4307  -12.6944 N.pl3       1 OZZ      -0.2105
      8 O8         34.3233   -2.9328  -13.5790 O.3         1 OZZ      -0.3846
      9 O9         33.3703   -0.7146  -14.8098 O.3         1 OZZ      -0.3834
     10 C10        38.2983   -2.3497  -13.4342 C.2         1 OZZ      -0.0744
     11 C11        39.6833   -2.1449  -13.8059 C.3         1 OZZ       0.0473
     12 N12        40.4267   -3.3457  -13.5832 N.am        1 OZZ      -0.2765
     13 C13        41.7093   -3.4215  -13.2585 C.2         1 OZZ       0.2411
     14 C14        42.2903   -4.6641  -13.1260 C.ar        1 OZZ       0.2482
     15 C15        43.1132   -5.1960  -14.1450 C.ar        1 OZZ       0.3921
     16 C16        43.7237   -6.4530  -13.9709 C.ar        1 OZZ       0.3797
     17 C17        43.4948   -7.1899  -12.7938 C.ar        1 OZZ       0.1691
     18 C18        42.6692   -6.6887  -11.7579 C.ar        1 OZZ       0.2168
     19 C19        42.0687   -5.4177  -11.9508 C.ar        1 OZZ       0.1162
     20 N20        42.4680   -7.4038  -10.6114 N.2         1 OZZ      -0.1404
     21 O21        43.3022   -4.5188  -15.3073 O.3         1 OZZ      -0.1763
     22 O22        44.5424   -6.9576  -14.9231 O.3         1 OZZ      -0.1825
     23 O23        42.4150   -2.4347  -13.0999 O.2         1 OZZ      -0.3823
     24 O24        42.9185   -8.6188  -10.4555 O.2         1 OZZ      -0.4541
     25 O25        41.9034   -6.9450   -9.6546 O.2         1 OZZ      -0.4541
     26 C26        33.0374    1.9642  -12.7437 C.2         1 OZZ       0.0592
     27 C27        32.8552    3.3019  -12.7459 C.2         1 OZZ      -0.0116
     28 C28        33.9519    4.1191  -12.7242 C.2         1 OZZ       0.0683
     29 C29        35.3412    2.2376  -12.7560 C.2         1 OZZ       0.0592
     30 C30        35.2063    3.5796  -12.7586 C.2         1 OZZ      -0.0116
     31 O31        33.8120    5.3339  -12.7175 O.2         1 OZZ      -0.4519
     32 H1         35.8707   -2.1983  -14.6840 H           1 OZZ       0.0667
     33 H2         35.2727    0.0700  -14.6868 H           1 OZZ       0.0678
     34 H3         33.5696   -0.4722  -12.2099 H           1 OZZ       0.0999
     35 H4         36.0113   -2.4306  -11.8205 H           1 OZZ       0.0749
     36 H5         37.9778   -0.5946  -12.4766 H           1 OZZ       0.0477
     37 H6         34.8380   -3.7685  -13.5805 H           1 OZZ       0.2102
     38 H7         32.9928    0.1810  -14.9140 H           1 OZZ       0.2101
     39 H8         37.8564   -3.1740  -13.7766 H           1 OZZ       0.0470
     40 H9         40.1184   -1.3004  -13.2683 H           1 OZZ       0.0643
     41 H10        39.7099   -1.9191  -14.8766 H           1 OZZ       0.0643
     42 H11        39.9702   -4.1869  -13.7688 H           1 OZZ       0.1867
     43 H12        43.9566   -8.0979  -12.6942 H           1 OZZ       0.1086
     44 H13        41.4627   -5.0334  -11.2182 H           1 OZZ       0.1563
     45 H14        42.8115   -5.0411  -15.9811 H           1 OZZ       0.3540
     46 H15        43.9338   -7.4341  -15.5226 H           1 OZZ       0.3497
     47 H16        32.2287    1.3852  -12.8066 H           1 OZZ       0.1185
     48 H17        31.9364    3.6832  -12.7889 H           1 OZZ       0.0387
     49 H18        36.2616    1.8640  -12.8256 H           1 OZZ       0.1185
     50 H19        36.0091    4.1634  -12.8314 H           1 OZZ       0.0387
@<TRIPOS>BOND
     1     1     2   1
     2     1     5   1
     3     1     8   1
     4     2     3   1
     5     2     9   1
     6     3     4   1
     7     3     7   1
     8     4     5   1
     9     5     6   1
    10     6    10   2
    11     7    26   1
    12     7    29   1
    13    10    11   1
    14    11    12   1
    15    12    13  am
    16    13    14   1
    17    13    23   2
    18    14    15  ar
    19    14    19  ar
    20    15    16  ar
    21    15    21   1
    22    16    17  ar
    23    16    22   1
    24    17    18  ar
    25    18    19  ar
    26    18    20   1
    27    20    24   2
    28    20    25   2
    29    26    27   2
    30    27    28   1
    31    28    30   1
    32    28    31   2
    33    29    30   2
    34     1    32   1
    35     2    33   1
    36     3    34   1
    37     5    35   1
    38     6    36   1
    39     8    37   1
    40     9    38   1
    41    10    39   1
    42    11    40   1
    43    11    41   1
    44    12    42   1
    45    17    43   1
    46    19    44   1
    47    21    45   1
    48    22    46   1
    49    26    47   1
    50    27    48   1
    51    29    49   1
    52    30    50   1
@<TRIPOS>SUBSTRUCTURE
     1  OZZ      1

