@<TRIPOS>MOLECULE
3ozt_ligand_056
    50    52
SMALL
GAST_HUCK
****
This file was generated by PARSER (from files_GN.cpp)

@<TRIPOS>ATOM
      1 C1         35.0713   -1.8874  -13.7654 C.3         1 OZZ       0.1189
      2 C2         34.4023   -0.5445  -14.0698 C.3         1 OZZ       0.1403
      3 C3         34.0794   -0.0174  -12.6534 C.3         1 OZZ       0.2027
      4 O4         35.0116   -0.6279  -11.7393 O.3         1 OZZ      -0.3296
      5 C5         35.8268   -1.5872  -12.4438 C.3         1 OZZ       0.1082
      6 C6         37.1810   -1.0469  -12.5835 C.2         1 OZZ      -0.0658
      7 N7         34.0478    1.4066  -12.5874 N.pl3       1 OZZ      -0.2105
      8 O8         34.1002   -2.9198  -13.5728 O.3         1 OZZ      -0.3846
      9 O9         33.2498   -0.6766  -14.9042 O.3         1 OZZ      -0.3834
     10 C10        38.1489   -1.5799  -13.3465 C.2         1 OZZ      -0.0744
     11 C11        39.4707   -0.9921  -13.4999 C.3         1 OZZ       0.0473
     12 N12        40.4874   -1.8984  -13.0806 N.am        1 OZZ      -0.2765
     13 C13        40.7466   -2.2303  -11.8261 C.2         1 OZZ       0.2411
     14 C14        41.6560   -3.2319  -11.5878 C.ar        1 OZZ       0.2482
     15 C15        42.9923   -2.9238  -11.2538 C.ar        1 OZZ       0.3921
     16 C16        43.9039   -3.9627  -11.0065 C.ar        1 OZZ       0.3797
     17 C17        43.4932   -5.3067  -11.1179 C.ar        1 OZZ       0.1691
     18 C18        42.1639   -5.6459  -11.4797 C.ar        1 OZZ       0.2168
     19 C19        41.2561   -4.5821  -11.7112 C.ar        1 OZZ       0.1162
     20 N20        41.7822   -6.9525  -11.6051 N.2         1 OZZ      -0.1404
     21 O21        43.4070   -1.6340  -11.1647 O.3         1 OZZ      -0.1763
     22 O22        45.1813   -3.6637  -10.6644 O.3         1 OZZ      -0.1825
     23 O23        40.1829   -1.7164  -10.8683 O.2         1 OZZ      -0.3823
     24 O24        42.6099   -7.9550  -11.4386 O.2         1 OZZ      -0.4541
     25 O25        40.6577   -7.2727  -11.8933 O.2         1 OZZ      -0.4541
     26 C26        32.8706    2.0497  -12.6324 C.2         1 OZZ       0.0592
     27 C27        32.8135    3.3976  -12.7400 C.2         1 OZZ      -0.0116
     28 C28        33.9779    4.1077  -12.8050 C.2         1 OZZ       0.0683
     29 C29        35.1866    2.1147  -12.6250 C.2         1 OZZ       0.0592
     30 C30        35.1772    3.4621  -12.7357 C.2         1 OZZ      -0.0116
     31 O31        33.9487    5.3270  -12.9280 O.2         1 OZZ      -0.4519
     32 H1         35.7235   -2.1916  -14.5868 H           1 OZZ       0.0667
     33 H2         35.1251    0.1075  -14.5707 H           1 OZZ       0.0678
     34 H3         33.1143   -0.4450  -12.3563 H           1 OZZ       0.0999
     35 H4         35.8947   -2.5022  -11.8428 H           1 OZZ       0.0749
     36 H5         37.4056   -0.2321  -12.0622 H           1 OZZ       0.0477
     37 H6         34.6153   -3.7531  -13.4949 H           1 OZZ       0.2102
     38 H7         32.8372    0.2100  -14.9467 H           1 OZZ       0.2101
     39 H8         37.9593   -2.4025  -13.8676 H           1 OZZ       0.0470
     40 H9         39.5806   -0.0423  -12.9651 H           1 OZZ       0.0643
     41 H10        39.6250   -0.7813  -14.5591 H           1 OZZ       0.0643
     42 H11        41.0321   -2.3072  -13.7744 H           1 OZZ       0.1867
     43 H12        44.1846   -6.0394  -10.9349 H           1 OZZ       0.1086
     44 H13        40.2861   -4.7894  -11.9791 H           1 OZZ       0.1563
     45 H14        43.7834   -1.4368  -12.0489 H           1 OZZ       0.3540
     46 H15        45.2640   -3.9487   -9.7301 H           1 OZZ       0.3497
     47 H16        32.0089    1.5535  -12.6017 H           1 OZZ       0.1185
     48 H17        31.9317    3.8576  -12.7750 H           1 OZZ       0.0387
     49 H18        36.0726    1.6714  -12.5853 H           1 OZZ       0.1185
     50 H19        36.0331    3.9673  -12.7800 H           1 OZZ       0.0387
@<TRIPOS>BOND
     1     1     2   1
     2     1     5   1
     3     1     8   1
     4     2     3   1
     5     2     9   1
     6     3     4   1
     7     3     7   1
     8     4     5   1
     9     5     6   1
    10     6    10   2
    11     7    26   1
    12     7    29   1
    13    10    11   1
    14    11    12   1
    15    12    13  am
    16    13    14   1
    17    13    23   2
    18    14    15  ar
    19    14    19  ar
    20    15    16  ar
    21    15    21   1
    22    16    17  ar
    23    16    22   1
    24    17    18  ar
    25    18    19  ar
    26    18    20   1
    27    20    24   2
    28    20    25   2
    29    26    27   2
    30    27    28   1
    31    28    30   1
    32    28    31   2
    33    29    30   2
    34     1    32   1
    35     2    33   1
    36     3    34   1
    37     5    35   1
    38     6    36   1
    39     8    37   1
    40     9    38   1
    41    10    39   1
    42    11    40   1
    43    11    41   1
    44    12    42   1
    45    17    43   1
    46    19    44   1
    47    21    45   1
    48    22    46   1
    49    26    47   1
    50    27    48   1
    51    29    49   1
    52    30    50   1
@<TRIPOS>SUBSTRUCTURE
     1  OZZ      1

