@<TRIPOS>MOLECULE
3ozt_ligand_039
    50    52
SMALL
GAST_HUCK
****
This file was generated by PARSER (from files_GN.cpp)

@<TRIPOS>ATOM
      1 C1         38.6616   -1.9653   -6.0019 C.3         1 OZZ       0.1189
      2 C2         38.8729   -0.8935   -4.9106 C.3         1 OZZ       0.1403
      3 C3         38.4354   -1.6111   -3.6059 C.3         1 OZZ       0.2027
      4 O4         37.7337   -2.8098   -4.0132 O.3         1 OZZ      -0.3296
      5 C5         37.4736   -2.7465   -5.4238 C.3         1 OZZ       0.1082
      6 C6         37.3308   -4.0842   -5.9686 C.2         1 OZZ      -0.0658
      7 N7         39.4994   -1.8180   -2.6787 N.pl3       1 OZZ      -0.2105
      8 O8         38.3636   -1.4423   -7.3022 O.3         1 OZZ      -0.3846
      9 O9         38.0476    0.2527   -5.1496 O.3         1 OZZ      -0.3834
     10 C10        36.4731   -4.3915   -6.9543 C.2         1 OZZ      -0.0744
     11 C11        36.2950   -5.7512   -7.4307 C.3         1 OZZ       0.0473
     12 N12        35.6066   -5.7689   -8.6957 N.am        1 OZZ      -0.2765
     13 C13        34.5929   -6.5407   -9.0767 C.2         1 OZZ       0.2411
     14 C14        33.9979   -6.4713  -10.3567 C.ar        1 OZZ       0.2482
     15 C15        34.1444   -5.3428  -11.2148 C.ar        1 OZZ       0.3921
     16 C16        33.4974   -5.3010  -12.4676 C.ar        1 OZZ       0.3797
     17 C17        32.6827   -6.3685  -12.8801 C.ar        1 OZZ       0.1691
     18 C18        32.5182   -7.5145  -12.0716 C.ar        1 OZZ       0.2168
     19 C19        33.1888   -7.5416  -10.8240 C.ar        1 OZZ       0.1162
     20 N20        31.7168   -8.5378  -12.4953 N.2         1 OZZ      -0.1404
     21 O21        34.8391   -4.2379  -10.8517 O.3         1 OZZ      -0.1763
     22 O22        33.6200   -4.2317  -13.2897 O.3         1 OZZ      -0.1825
     23 O23        34.1713   -7.3621   -8.2651 O.2         1 OZZ      -0.3823
     24 O24        31.0649   -8.5087  -13.6303 O.2         1 OZZ      -0.4541
     25 O25        31.5541   -9.5472  -11.8531 O.2         1 OZZ      -0.4541
     26 C26        39.8280   -3.0480   -2.2398 C.2         1 OZZ       0.0592
     27 C27        40.8205   -3.2399   -1.3517 C.2         1 OZZ      -0.0116
     28 C28        41.5113   -2.1582   -0.8806 C.2         1 OZZ       0.0683
     29 C29        40.1839   -0.7571   -2.2158 C.2         1 OZZ       0.0592
     30 C30        41.1898   -0.9015   -1.3289 C.2         1 OZZ      -0.0116
     31 O31        42.4108   -2.3125   -0.0590 O.2         1 OZZ      -0.4519
     32 H1         39.5483   -2.6041   -6.0671 H           1 OZZ       0.0667
     33 H2         39.9201   -0.5800   -4.8932 H           1 OZZ       0.0678
     34 H3         37.6686   -1.0026   -3.0927 H           1 OZZ       0.0999
     35 H4         36.5438   -2.1771   -5.5737 H           1 OZZ       0.0749
     36 H5         37.9103   -4.8083   -5.5933 H           1 OZZ       0.0477
     37 H6         39.1861   -0.9964   -7.5951 H           1 OZZ       0.2102
     38 H7         38.5580    0.8162   -5.7871 H           1 OZZ       0.2101
     39 H8         35.9132   -3.6639   -7.3497 H           1 OZZ       0.0470
     40 H9         35.7846   -6.3196   -6.6524 H           1 OZZ       0.0643
     41 H10        37.2747   -6.1991   -7.5899 H           1 OZZ       0.0643
     42 H11        35.9842   -5.1872   -9.3747 H           1 OZZ       0.1867
     43 H12        32.2061   -6.2902  -13.7863 H           1 OZZ       0.1086
     44 H13        33.0753   -8.3688  -10.2427 H           1 OZZ       0.1563
     45 H14        34.1919   -3.7056  -10.3526 H           1 OZZ       0.3540
     46 H15        33.6770   -3.4481  -12.6983 H           1 OZZ       0.3497
     47 H16        39.3504   -3.8566   -2.5693 H           1 OZZ       0.1185
     48 H17        41.0542   -4.1595   -1.0470 H           1 OZZ       0.0387
     49 H18        39.9645    0.1631   -2.5090 H           1 OZZ       0.1185
     50 H19        41.7077   -0.1093   -1.0079 H           1 OZZ       0.0387
@<TRIPOS>BOND
     1     1     2   1
     2     1     5   1
     3     1     8   1
     4     2     3   1
     5     2     9   1
     6     3     4   1
     7     3     7   1
     8     4     5   1
     9     5     6   1
    10     6    10   2
    11     7    26   1
    12     7    29   1
    13    10    11   1
    14    11    12   1
    15    12    13  am
    16    13    14   1
    17    13    23   2
    18    14    15  ar
    19    14    19  ar
    20    15    16  ar
    21    15    21   1
    22    16    17  ar
    23    16    22   1
    24    17    18  ar
    25    18    19  ar
    26    18    20   1
    27    20    24   2
    28    20    25   2
    29    26    27   2
    30    27    28   1
    31    28    30   1
    32    28    31   2
    33    29    30   2
    34     1    32   1
    35     2    33   1
    36     3    34   1
    37     5    35   1
    38     6    36   1
    39     8    37   1
    40     9    38   1
    41    10    39   1
    42    11    40   1
    43    11    41   1
    44    12    42   1
    45    17    43   1
    46    19    44   1
    47    21    45   1
    48    22    46   1
    49    26    47   1
    50    27    48   1
    51    29    49   1
    52    30    50   1
@<TRIPOS>SUBSTRUCTURE
     1  OZZ      1

