@<TRIPOS>MOLECULE
3ozt_ligand_037
    50    52
SMALL
GAST_HUCK
****
This file was generated by PARSER (from files_GN.cpp)

@<TRIPOS>ATOM
      1 C1         38.2064   -1.4570   -6.6265 C.3         1 OZZ       0.1189
      2 C2         38.9225   -2.6098   -5.8960 C.3         1 OZZ       0.1403
      3 C3         37.8584   -3.7331   -5.8036 C.3         1 OZZ       0.2027
      4 O4         37.1798   -3.5841   -7.0673 O.3         1 OZZ      -0.3296
      5 C5         37.0668   -2.1867   -7.3844 C.3         1 OZZ       0.1082
      6 C6         37.0822   -1.9969   -8.8343 C.2         1 OZZ      -0.0658
      7 N7         38.3454   -5.0537   -5.5420 N.pl3       1 OZZ      -0.2105
      8 O8         37.6610   -0.4829   -5.7292 O.3         1 OZZ      -0.3846
      9 O9         39.4444   -2.1922   -4.6370 O.3         1 OZZ      -0.3834
     10 C10        38.1079   -2.3741   -9.6222 C.2         1 OZZ      -0.0744
     11 C11        38.2016   -2.2058  -11.0689 C.3         1 OZZ       0.0473
     12 N12        37.1482   -1.4465  -11.6718 N.am        1 OZZ      -0.2765
     13 C13        37.2625   -0.3920  -12.4760 C.2         1 OZZ       0.2411
     14 C14        36.1122    0.2317  -12.9521 C.ar        1 OZZ       0.2482
     15 C15        35.1021   -0.5065  -13.6137 C.ar        1 OZZ       0.3921
     16 C16        33.9514    0.1432  -14.1028 C.ar        1 OZZ       0.3797
     17 C17        33.7782    1.5247  -13.8769 C.ar        1 OZZ       0.1691
     18 C18        34.7663    2.2929  -13.2182 C.ar        1 OZZ       0.2168
     19 C19        35.9357    1.6249  -12.7892 C.ar        1 OZZ       0.1162
     20 N20        34.5967    3.6370  -13.0175 N.2         1 OZZ      -0.1404
     21 O21        35.2567   -1.8355  -13.8443 O.3         1 OZZ      -0.1763
     22 O22        33.0351   -0.5707  -14.7993 O.3         1 OZZ      -0.1825
     23 O23        38.3523    0.0783  -12.7758 O.2         1 OZZ      -0.3823
     24 O24        33.5228    4.2752  -13.3885 O.2         1 OZZ      -0.4541
     25 O25        35.4323    4.3191  -12.4833 O.2         1 OZZ      -0.4541
     26 C26        39.1224   -5.2752   -4.4655 C.2         1 OZZ       0.0592
     27 C27        39.6477   -6.4913   -4.2082 C.2         1 OZZ      -0.0116
     28 C28        39.3247   -7.5413   -5.0190 C.2         1 OZZ       0.0683
     29 C29        37.9788   -6.1097   -6.2949 C.2         1 OZZ       0.0592
     30 C30        38.4547   -7.3512   -6.0518 C.2         1 OZZ      -0.0116
     31 O31        39.7841   -8.6560   -4.7923 O.2         1 OZZ      -0.4519
     32 H1         38.9098   -0.9460   -7.2910 H           1 OZZ       0.0667
     33 H2         39.7555   -2.9655   -6.5091 H           1 OZZ       0.0678
     34 H3         37.1390   -3.4820   -5.0147 H           1 OZZ       0.0999
     35 H4         36.0954   -1.8522   -6.9953 H           1 OZZ       0.0749
     36 H5         36.2725   -1.5955   -9.2509 H           1 OZZ       0.0477
     37 H6         38.4316   -0.0088   -5.3430 H           1 OZZ       0.2102
     38 H7         40.2098   -1.6153   -4.8563 H           1 OZZ       0.2101
     39 H8         38.8874   -2.8212   -9.1967 H           1 OZZ       0.0470
     40 H9         38.1739   -3.2005  -11.5190 H           1 OZZ       0.0643
     41 H10        39.1884   -1.7823  -11.2949 H           1 OZZ       0.0643
     42 H11        36.2446   -1.7350  -11.4693 H           1 OZZ       0.1867
     43 H12        32.9252    1.9669  -14.2224 H           1 OZZ       0.1086
     44 H13        36.6693    2.1611  -12.3201 H           1 OZZ       0.1563
     45 H14        35.3252   -1.8974  -14.8166 H           1 OZZ       0.3540
     46 H15        32.4428    0.0853  -15.2240 H           1 OZZ       0.3497
     47 H16        39.3192   -4.5438   -3.8179 H           1 OZZ       0.1185
     48 H17        40.2381   -6.6232   -3.4165 H           1 OZZ       0.0387
     49 H18        37.3249   -6.0241   -7.0399 H           1 OZZ       0.1185
     50 H19        38.1582   -8.1190   -6.6124 H           1 OZZ       0.0387
@<TRIPOS>BOND
     1     1     2   1
     2     1     5   1
     3     1     8   1
     4     2     3   1
     5     2     9   1
     6     3     4   1
     7     3     7   1
     8     4     5   1
     9     5     6   1
    10     6    10   2
    11     7    26   1
    12     7    29   1
    13    10    11   1
    14    11    12   1
    15    12    13  am
    16    13    14   1
    17    13    23   2
    18    14    15  ar
    19    14    19  ar
    20    15    16  ar
    21    15    21   1
    22    16    17  ar
    23    16    22   1
    24    17    18  ar
    25    18    19  ar
    26    18    20   1
    27    20    24   2
    28    20    25   2
    29    26    27   2
    30    27    28   1
    31    28    30   1
    32    28    31   2
    33    29    30   2
    34     1    32   1
    35     2    33   1
    36     3    34   1
    37     5    35   1
    38     6    36   1
    39     8    37   1
    40     9    38   1
    41    10    39   1
    42    11    40   1
    43    11    41   1
    44    12    42   1
    45    17    43   1
    46    19    44   1
    47    21    45   1
    48    22    46   1
    49    26    47   1
    50    27    48   1
    51    29    49   1
    52    30    50   1
@<TRIPOS>SUBSTRUCTURE
     1  OZZ      1

