@<TRIPOS>MOLECULE
3ozt_ligand_007
    50    52
SMALL
GAST_HUCK
****
This file was generated by PARSER (from files_GN.cpp)

@<TRIPOS>ATOM
      1 C1         34.1673    1.1817  -14.0479 C.3         1 OZZ       0.1189
      2 C2         33.4966    2.5747  -13.9822 C.3         1 OZZ       0.1403
      3 C3         33.5154    2.9109  -12.4514 C.3         1 OZZ       0.2027
      4 O4         34.3151    1.8831  -11.8266 O.3         1 OZZ      -0.3296
      5 C5         34.0994    0.6859  -12.5883 C.3         1 OZZ       0.1082
      6 C6         35.0763   -0.3334  -12.2471 C.2         1 OZZ      -0.0658
      7 N7         33.9839    4.1930  -12.0133 N.pl3       1 OZZ      -0.2105
      8 O8         33.5836    0.3109  -15.0122 O.3         1 OZZ      -0.3846
      9 O9         32.1709    2.5866  -14.5216 O.3         1 OZZ      -0.3834
     10 C10        35.0343   -1.5685  -12.7883 C.2         1 OZZ      -0.0744
     11 C11        35.9627   -2.6486  -12.4861 C.3         1 OZZ       0.0473
     12 N12        35.3487   -3.7935  -11.8757 N.am        1 OZZ      -0.2765
     13 C13        34.2840   -4.4835  -12.2921 C.2         1 OZZ       0.2411
     14 C14        33.8347   -5.6692  -11.6734 C.ar        1 OZZ       0.2482
     15 C15        34.1786   -6.0325  -10.3402 C.ar        1 OZZ       0.3921
     16 C16        33.7745   -7.2687   -9.7979 C.ar        1 OZZ       0.3797
     17 C17        32.9833   -8.1437  -10.5567 C.ar        1 OZZ       0.1691
     18 C18        32.5605   -7.8120  -11.8617 C.ar        1 OZZ       0.2168
     19 C19        33.0048   -6.5746  -12.3956 C.ar        1 OZZ       0.1162
     20 N20        31.7451   -8.6428  -12.5712 N.2         1 OZZ      -0.1404
     21 O21        34.8395   -5.2012   -9.4992 O.3         1 OZZ      -0.1763
     22 O22        34.1022   -7.6146   -8.5267 O.3         1 OZZ      -0.1825
     23 O23        33.7159   -4.0756  -13.3018 O.2         1 OZZ      -0.3823
     24 O24        31.3672   -9.8017  -12.1107 O.2         1 OZZ      -0.4541
     25 O25        31.3272   -8.3845  -13.6694 O.2         1 OZZ      -0.4541
     26 C26        35.0574    4.7704  -12.5786 C.2         1 OZZ       0.0592
     27 C27        35.4954    5.9872  -12.1686 C.2         1 OZZ      -0.0116
     28 C28        34.9063    6.5833  -11.0891 C.2         1 OZZ       0.0683
     29 C29        33.4277    4.7769  -10.9405 C.2         1 OZZ       0.0592
     30 C30        33.8564    5.9713  -10.4773 C.2         1 OZZ      -0.0116
     31 O31        35.3293    7.6531  -10.6737 O.2         1 OZZ      -0.4519
     32 H1         35.2288    1.3101  -14.3250 H           1 OZZ       0.0667
     33 H2         34.0858    3.2991  -14.5651 H           1 OZZ       0.0678
     34 H3         32.4908    2.7471  -12.0875 H           1 OZZ       0.0999
     35 H4         33.0970    0.2967  -12.3819 H           1 OZZ       0.0749
     36 H5         35.7796   -0.1245  -11.5733 H           1 OZZ       0.0477
     37 H6         32.6105    0.4685  -14.9811 H           1 OZZ       0.2102
     38 H7         31.6220    2.0336  -13.9140 H           1 OZZ       0.2101
     39 H8         34.3289   -1.7573  -13.4625 H           1 OZZ       0.0470
     40 H9         36.7537   -2.3088  -11.8076 H           1 OZZ       0.0643
     41 H10        36.4510   -2.9503  -13.4181 H           1 OZZ       0.0643
     42 H11        35.8197   -4.1370  -11.1070 H           1 OZZ       0.1867
     43 H12        32.6857   -9.0231  -10.1294 H           1 OZZ       0.1086
     44 H13        32.7188   -6.3341  -13.3501 H           1 OZZ       0.1563
     45 H14        34.2340   -4.4366   -9.4036 H           1 OZZ       0.3540
     46 H15        35.0781   -7.5412   -8.4745 H           1 OZZ       0.3497
     47 H16        35.5619    4.3133  -13.3159 H           1 OZZ       0.1185
     48 H17        36.2849    6.4098  -12.6151 H           1 OZZ       0.0387
     49 H18        32.6919    4.3322  -10.4357 H           1 OZZ       0.1185
     50 H19        33.4181    6.3864   -9.6818 H           1 OZZ       0.0387
@<TRIPOS>BOND
     1     1     2   1
     2     1     5   1
     3     1     8   1
     4     2     3   1
     5     2     9   1
     6     3     4   1
     7     3     7   1
     8     4     5   1
     9     5     6   1
    10     6    10   2
    11     7    26   1
    12     7    29   1
    13    10    11   1
    14    11    12   1
    15    12    13  am
    16    13    14   1
    17    13    23   2
    18    14    15  ar
    19    14    19  ar
    20    15    16  ar
    21    15    21   1
    22    16    17  ar
    23    16    22   1
    24    17    18  ar
    25    18    19  ar
    26    18    20   1
    27    20    24   2
    28    20    25   2
    29    26    27   2
    30    27    28   1
    31    28    30   1
    32    28    31   2
    33    29    30   2
    34     1    32   1
    35     2    33   1
    36     3    34   1
    37     5    35   1
    38     6    36   1
    39     8    37   1
    40     9    38   1
    41    10    39   1
    42    11    40   1
    43    11    41   1
    44    12    42   1
    45    17    43   1
    46    19    44   1
    47    21    45   1
    48    22    46   1
    49    26    47   1
    50    27    48   1
    51    29    49   1
    52    30    50   1
@<TRIPOS>SUBSTRUCTURE
     1  OZZ      1

