@<TRIPOS>MOLECULE
3ozt_ligand_022
    50    52
SMALL
GAST_HUCK
****
This file was generated by PARSER (from files_GN.cpp)

@<TRIPOS>ATOM
      1 C1         41.5055   -7.4771   -4.6542 C.3         1 OZZ       0.1189
      2 C2         42.4098   -8.5565   -5.2537 C.3         1 OZZ       0.1403
      3 C3         42.2951   -9.7330   -4.2429 C.3         1 OZZ       0.2027
      4 O4         40.9420   -9.6187   -3.7413 O.3         1 OZZ      -0.3296
      5 C5         40.4032   -8.3089   -3.9593 C.3         1 OZZ       0.1082
      6 C6         39.1764   -8.4569   -4.7228 C.2         1 OZZ      -0.0658
      7 N7         42.6197  -11.0431   -4.7253 N.pl3       1 OZZ      -0.2105
      8 O8         42.2169   -6.6865   -3.7002 O.3         1 OZZ      -0.3846
      9 O9         43.7518   -8.0838   -5.4070 O.3         1 OZZ      -0.3834
     10 C10        38.1059   -9.1140   -4.2501 C.2         1 OZZ      -0.0744
     11 C11        36.8657   -9.3125   -4.9838 C.3         1 OZZ       0.0473
     12 N12        36.5165   -8.3062   -5.9490 N.am        1 OZZ      -0.2765
     13 C13        36.1435   -7.0601   -5.6818 C.2         1 OZZ       0.2411
     14 C14        35.9653   -6.1459   -6.7179 C.ar        1 OZZ       0.2482
     15 C15        35.2089   -6.4692   -7.8703 C.ar        1 OZZ       0.3921
     16 C16        34.9835   -5.5084   -8.8716 C.ar        1 OZZ       0.3797
     17 C17        35.5369   -4.2190   -8.7461 C.ar        1 OZZ       0.1691
     18 C18        36.3264   -3.8638   -7.6254 C.ar        1 OZZ       0.2168
     19 C19        36.5256   -4.8479   -6.6252 C.ar        1 OZZ       0.1162
     20 N20        36.8696   -2.6137   -7.5206 N.2         1 OZZ      -0.1404
     21 O21        34.5880   -7.6689   -7.9726 O.3         1 OZZ      -0.1763
     22 O22        34.2129   -5.8194   -9.9454 O.3         1 OZZ      -0.1825
     23 O23        36.0649   -6.6695   -4.5271 O.2         1 OZZ      -0.3823
     24 O24        36.6828   -1.6920   -8.4273 O.2         1 OZZ      -0.4541
     25 O25        37.5552   -2.2771   -6.5905 O.2         1 OZZ      -0.4541
     26 C26        41.9218  -12.1188   -4.3025 C.2         1 OZZ       0.0592
     27 C27        42.2463  -13.3706   -4.6871 C.2         1 OZZ      -0.0116
     28 C28        43.3241  -13.5550   -5.5041 C.2         1 OZZ       0.0683
     29 C29        43.7419  -11.2571   -5.4436 C.2         1 OZZ       0.0592
     30 C30        44.0946  -12.4866   -5.8646 C.2         1 OZZ      -0.0116
     31 O31        43.6328  -14.6819   -5.8671 O.2         1 OZZ      -0.4519
     32 H1         41.1254   -6.8099   -5.4325 H           1 OZZ       0.0667
     33 H2         42.0203   -8.8760   -6.2280 H           1 OZZ       0.0678
     34 H3         42.9595   -9.5241   -3.3954 H           1 OZZ       0.0999
     35 H4         40.1643   -7.8597   -2.9914 H           1 OZZ       0.0749
     36 H5         39.1290   -8.0549   -5.6325 H           1 OZZ       0.0477
     37 H6         41.5697   -6.0199   -3.3855 H           1 OZZ       0.2102
     38 H7         43.6993   -7.3853   -6.0902 H           1 OZZ       0.2101
     39 H8         38.1620   -9.5276   -3.3434 H           1 OZZ       0.0470
     40 H9         36.0347   -9.4078   -4.2786 H           1 OZZ       0.0643
     41 H10        36.9624  -10.2628   -5.5103 H           1 OZZ       0.0643
     42 H11        36.5976   -8.5626   -6.8795 H           1 OZZ       0.1867
     43 H12        35.3545   -3.5376   -9.4858 H           1 OZZ       0.1086
     44 H13        37.1009   -4.6157   -5.8106 H           1 OZZ       0.1563
     45 H14        34.9925   -8.1027   -8.7538 H           1 OZZ       0.3540
     46 H15        33.5616   -5.0894  -10.0173 H           1 OZZ       0.3497
     47 H16        41.1531  -12.0222   -3.6809 H           1 OZZ       0.1185
     48 H17        41.7146  -14.1463   -4.3637 H           1 OZZ       0.0387
     49 H18        44.3437  -10.5107   -5.6918 H           1 OZZ       0.1185
     50 H19        44.9186  -12.6136   -6.4047 H           1 OZZ       0.0387
@<TRIPOS>BOND
     1     1     2   1
     2     1     5   1
     3     1     8   1
     4     2     3   1
     5     2     9   1
     6     3     4   1
     7     3     7   1
     8     4     5   1
     9     5     6   1
    10     6    10   2
    11     7    26   1
    12     7    29   1
    13    10    11   1
    14    11    12   1
    15    12    13  am
    16    13    14   1
    17    13    23   2
    18    14    15  ar
    19    14    19  ar
    20    15    16  ar
    21    15    21   1
    22    16    17  ar
    23    16    22   1
    24    17    18  ar
    25    18    19  ar
    26    18    20   1
    27    20    24   2
    28    20    25   2
    29    26    27   2
    30    27    28   1
    31    28    30   1
    32    28    31   2
    33    29    30   2
    34     1    32   1
    35     2    33   1
    36     3    34   1
    37     5    35   1
    38     6    36   1
    39     8    37   1
    40     9    38   1
    41    10    39   1
    42    11    40   1
    43    11    41   1
    44    12    42   1
    45    17    43   1
    46    19    44   1
    47    21    45   1
    48    22    46   1
    49    26    47   1
    50    27    48   1
    51    29    49   1
    52    30    50   1
@<TRIPOS>SUBSTRUCTURE
     1  OZZ      1

