@<TRIPOS>MOLECULE
3ozt_ligand_036
    50    52
SMALL
GAST_HUCK
****
This file was generated by PARSER (from files_GN.cpp)

@<TRIPOS>ATOM
      1 C1         37.3709   -3.5603   -6.0178 C.3         1 OZZ       0.1189
      2 C2         38.6943   -3.7590   -6.7701 C.3         1 OZZ       0.1403
      3 C3         39.5830   -4.5099   -5.7465 C.3         1 OZZ       0.2027
      4 O4         38.6859   -5.1876   -4.8484 O.3         1 OZZ      -0.3296
      5 C5         37.3400   -4.7458   -5.0300 C.3         1 OZZ       0.1082
      6 C6         36.4783   -5.8611   -5.4254 C.2         1 OZZ      -0.0658
      7 N7         40.5592   -5.3616   -6.3474 N.pl3       1 OZZ      -0.2105
      8 O8         37.3300   -2.3088   -5.3224 O.3         1 OZZ      -0.3846
      9 O9         39.2713   -2.5279   -7.1920 O.3         1 OZZ      -0.3834
     10 C10        36.5751   -6.5462   -6.5732 C.2         1 OZZ      -0.0744
     11 C11        35.6304   -7.5802   -6.9799 C.3         1 OZZ       0.0473
     12 N12        35.1286   -7.4548   -8.3200 N.am        1 OZZ      -0.2765
     13 C13        34.5122   -6.4065   -8.8583 C.2         1 OZZ       0.2411
     14 C14        34.0143   -6.4426  -10.1624 C.ar        1 OZZ       0.2482
     15 C15        34.1753   -5.3394  -11.0393 C.ar        1 OZZ       0.3921
     16 C16        33.5811   -5.3450  -12.3153 C.ar        1 OZZ       0.3797
     17 C17        32.8144   -6.4489  -12.7269 C.ar        1 OZZ       0.1691
     18 C18        32.6282   -7.5728  -11.8918 C.ar        1 OZZ       0.2168
     19 C19        33.2577   -7.5538  -10.6169 C.ar        1 OZZ       0.1162
     20 N20        31.8318   -8.6121  -12.2936 N.2         1 OZZ      -0.1404
     21 O21        34.9043   -4.2490  -10.6811 O.3         1 OZZ      -0.1763
     22 O22        33.7137   -4.2941  -13.1659 O.3         1 OZZ      -0.1825
     23 O23        34.3480   -5.3995   -8.1900 O.2         1 OZZ      -0.3823
     24 O24        31.1975   -8.6130  -13.4370 O.2         1 OZZ      -0.4541
     25 O25        31.6425   -9.5891  -11.6273 O.2         1 OZZ      -0.4541
     26 C26        40.5836   -6.6817   -6.0988 C.2         1 OZZ       0.0592
     27 C27        41.5020   -7.4899   -6.6692 C.2         1 OZZ      -0.0116
     28 C28        42.4192   -6.9462   -7.5232 C.2         1 OZZ       0.0683
     29 C29        41.4759   -4.8317   -7.1733 C.2         1 OZZ       0.0592
     30 C30        42.4088   -5.6036   -7.7720 C.2         1 OZZ      -0.0116
     31 O31        43.2536   -7.6659   -8.0573 O.2         1 OZZ      -0.4519
     32 H1         36.5225   -3.5738   -6.7086 H           1 OZZ       0.0667
     33 H2         38.5469   -4.3738   -7.6600 H           1 OZZ       0.0678
     34 H3         40.0923   -3.7686   -5.1227 H           1 OZZ       0.0999
     35 H4         37.0019   -4.3929   -4.0522 H           1 OZZ       0.0749
     36 H5         35.7563   -6.1169   -4.7887 H           1 OZZ       0.0477
     37 H6         38.0930   -2.3108   -4.7075 H           1 OZZ       0.2102
     38 H7         38.6163   -2.1309   -7.8057 H           1 OZZ       0.2101
     39 H8         37.3178   -6.3536   -7.1978 H           1 OZZ       0.0470
     40 H9         34.7749   -7.6357   -6.3034 H           1 OZZ       0.0643
     41 H10        36.1501   -8.5374   -6.9127 H           1 OZZ       0.0643
     42 H11        35.2339   -8.2277   -8.8880 H           1 OZZ       0.1867
     43 H12        32.3780   -6.4141  -13.6491 H           1 OZZ       0.1086
     44 H13        33.1053   -8.3423   -9.9812 H           1 OZZ       0.1563
     45 H14        34.2570   -3.6828  -10.2148 H           1 OZZ       0.3540
     46 H15        33.8023   -3.4965  -12.6020 H           1 OZZ       0.3497
     47 H16        39.9226   -7.1148   -5.4960 H           1 OZZ       0.1185
     48 H17        41.4992   -8.4630   -6.4713 H           1 OZZ       0.0387
     49 H18        41.4989   -3.8533   -7.3539 H           1 OZZ       0.1185
     50 H19        43.0912   -5.1910   -8.3670 H           1 OZZ       0.0387
@<TRIPOS>BOND
     1     1     2   1
     2     1     5   1
     3     1     8   1
     4     2     3   1
     5     2     9   1
     6     3     4   1
     7     3     7   1
     8     4     5   1
     9     5     6   1
    10     6    10   2
    11     7    26   1
    12     7    29   1
    13    10    11   1
    14    11    12   1
    15    12    13  am
    16    13    14   1
    17    13    23   2
    18    14    15  ar
    19    14    19  ar
    20    15    16  ar
    21    15    21   1
    22    16    17  ar
    23    16    22   1
    24    17    18  ar
    25    18    19  ar
    26    18    20   1
    27    20    24   2
    28    20    25   2
    29    26    27   2
    30    27    28   1
    31    28    30   1
    32    28    31   2
    33    29    30   2
    34     1    32   1
    35     2    33   1
    36     3    34   1
    37     5    35   1
    38     6    36   1
    39     8    37   1
    40     9    38   1
    41    10    39   1
    42    11    40   1
    43    11    41   1
    44    12    42   1
    45    17    43   1
    46    19    44   1
    47    21    45   1
    48    22    46   1
    49    26    47   1
    50    27    48   1
    51    29    49   1
    52    30    50   1
@<TRIPOS>SUBSTRUCTURE
     1  OZZ      1

