@<TRIPOS>MOLECULE
3ozt_ligand_064
    50    52
SMALL
GAST_HUCK
****
This file was generated by PARSER (from files_GN.cpp)

@<TRIPOS>ATOM
      1 C1         35.5812   -7.3014   -5.9689 C.3         1 OZZ       0.1189
      2 C2         36.3131   -8.2259   -4.9828 C.3         1 OZZ       0.1403
      3 C3         37.6504   -8.5452   -5.7005 C.3         1 OZZ       0.2027
      4 O4         37.8916   -7.4315   -6.5931 O.3         1 OZZ      -0.3296
      5 C5         36.7452   -6.5677   -6.6687 C.3         1 OZZ       0.1082
      6 C6         37.0107   -5.2401   -6.1190 C.2         1 OZZ      -0.0658
      7 N7         38.7459   -8.8691   -4.8358 N.pl3       1 OZZ      -0.2105
      8 O8         34.7964   -8.0247   -6.9236 O.3         1 OZZ      -0.3846
      9 O9         35.5521   -9.3861   -4.6487 O.3         1 OZZ      -0.3834
     10 C10        37.7371   -4.9972   -5.0146 C.2         1 OZZ      -0.0744
     11 C11        37.9723   -3.6643   -4.4901 C.3         1 OZZ       0.0473
     12 N12        38.7670   -2.9128   -5.4127 N.am        1 OZZ      -0.2765
     13 C13        38.4976   -1.7237   -5.9422 C.2         1 OZZ       0.2411
     14 C14        39.3472   -1.1890   -6.9075 C.ar        1 OZZ       0.2482
     15 C15        39.7513    0.1686   -6.8897 C.ar        1 OZZ       0.3921
     16 C16        40.6290    0.6666   -7.8716 C.ar        1 OZZ       0.3797
     17 C17        41.0927   -0.1763   -8.8973 C.ar        1 OZZ       0.1691
     18 C18        40.6992   -1.5315   -8.9733 C.ar        1 OZZ       0.2168
     19 C19        39.8295   -2.0152   -7.9584 C.ar        1 OZZ       0.1162
     20 N20        41.1360   -2.3298   -9.9878 N.2         1 OZZ      -0.1404
     21 O21        39.3295    1.0285   -5.9282 O.3         1 OZZ      -0.1763
     22 O22        41.0255    1.9622   -7.8539 O.3         1 OZZ      -0.1825
     23 O23        37.5168   -1.0830   -5.5763 O.2         1 OZZ      -0.3823
     24 O24        41.9292   -1.8967  -10.9295 O.2         1 OZZ      -0.4541
     25 O25        40.8175   -3.4896  -10.0898 O.2         1 OZZ      -0.4541
     26 C26        39.9442   -8.2702   -4.9698 C.2         1 OZZ       0.0592
     27 C27        40.9883   -8.5948   -4.1771 C.2         1 OZZ      -0.0116
     28 C28        40.8200   -9.5430   -3.2076 C.2         1 OZZ       0.0683
     29 C29        38.6120   -9.8538   -3.9248 C.2         1 OZZ       0.0592
     30 C30        39.6187  -10.1824   -3.0869 C.2         1 OZZ      -0.0116
     31 O31        41.7598   -9.8602   -2.4903 O.2         1 OZZ      -0.4519
     32 H1         34.9121   -6.6152   -5.4408 H           1 OZZ       0.0667
     33 H2         36.5131   -7.6801   -4.0569 H           1 OZZ       0.0678
     34 H3         37.4783   -9.4064   -6.3551 H           1 OZZ       0.0999
     35 H4         36.5123   -6.4408   -7.7292 H           1 OZZ       0.0749
     36 H5         36.5999   -4.4628   -6.5963 H           1 OZZ       0.0477
     37 H6         35.2843   -8.8556   -7.1221 H           1 OZZ       0.2102
     38 H7         35.3623   -9.8281   -5.5051 H           1 OZZ       0.2101
     39 H8         38.1530   -5.7595   -4.5327 H           1 OZZ       0.0470
     40 H9         38.5304   -3.7413   -3.5538 H           1 OZZ       0.0643
     41 H10        37.0116   -3.1890   -4.2677 H           1 OZZ       0.0643
     42 H11        39.6024   -3.3266   -5.6814 H           1 OZZ       0.1867
     43 H12        41.7208    0.2177   -9.6027 H           1 OZZ       0.1086
     44 H13        39.5156   -2.9886   -8.0083 H           1 OZZ       0.1563
     45 H14        38.4635    1.3587   -6.2549 H           1 OZZ       0.3540
     46 H15        40.3268    2.4393   -8.3493 H           1 OZZ       0.3497
     47 H16        40.1116   -7.5884   -5.6755 H           1 OZZ       0.1185
     48 H17        41.8716   -8.1564   -4.3086 H           1 OZZ       0.0387
     49 H18        37.7709  -10.3801   -3.8509 H           1 OZZ       0.1185
     50 H19        39.4945  -10.9084   -2.4156 H           1 OZZ       0.0387
@<TRIPOS>BOND
     1     1     2   1
     2     1     5   1
     3     1     8   1
     4     2     3   1
     5     2     9   1
     6     3     4   1
     7     3     7   1
     8     4     5   1
     9     5     6   1
    10     6    10   2
    11     7    26   1
    12     7    29   1
    13    10    11   1
    14    11    12   1
    15    12    13  am
    16    13    14   1
    17    13    23   2
    18    14    15  ar
    19    14    19  ar
    20    15    16  ar
    21    15    21   1
    22    16    17  ar
    23    16    22   1
    24    17    18  ar
    25    18    19  ar
    26    18    20   1
    27    20    24   2
    28    20    25   2
    29    26    27   2
    30    27    28   1
    31    28    30   1
    32    28    31   2
    33    29    30   2
    34     1    32   1
    35     2    33   1
    36     3    34   1
    37     5    35   1
    38     6    36   1
    39     8    37   1
    40     9    38   1
    41    10    39   1
    42    11    40   1
    43    11    41   1
    44    12    42   1
    45    17    43   1
    46    19    44   1
    47    21    45   1
    48    22    46   1
    49    26    47   1
    50    27    48   1
    51    29    49   1
    52    30    50   1
@<TRIPOS>SUBSTRUCTURE
     1  OZZ      1

