@<TRIPOS>MOLECULE
3ozt_ligand_012
    50    52
SMALL
GAST_HUCK
****
This file was generated by PARSER (from files_GN.cpp)

@<TRIPOS>ATOM
      1 C1         38.6138   -2.1401  -14.5037 C.3         1 OZZ       0.1189
      2 C2         39.8719   -3.0497  -14.5314 C.3         1 OZZ       0.1403
      3 C3         40.3732   -3.0680  -13.0637 C.3         1 OZZ       0.2027
      4 O4         39.2199   -2.7152  -12.2780 O.3         1 OZZ      -0.3296
      5 C5         38.5235   -1.6984  -13.0190 C.3         1 OZZ       0.1082
      6 C6         37.1735   -1.4670  -12.5043 C.2         1 OZZ      -0.0658
      7 N7         40.9621   -4.3046  -12.6734 N.pl3       1 OZZ      -0.2105
      8 O8         38.6960   -1.0050  -15.3710 O.3         1 OZZ      -0.3846
      9 O9         40.8851   -2.5973  -15.4304 O.3         1 OZZ      -0.3834
     10 C10        36.2100   -2.4101  -12.5047 C.2         1 OZZ      -0.0744
     11 C11        34.8530   -2.1578  -12.0199 C.3         1 OZZ       0.0473
     12 N12        34.2411   -3.3627  -11.5397 N.am        1 OZZ      -0.2765
     13 C13        33.8619   -4.4172  -12.2589 C.2         1 OZZ       0.2411
     14 C14        33.5023   -5.6507  -11.6837 C.ar        1 OZZ       0.2482
     15 C15        33.9421   -6.0602  -10.3905 C.ar        1 OZZ       0.3921
     16 C16        33.6175   -7.3337   -9.8885 C.ar        1 OZZ       0.3797
     17 C17        32.8592   -8.2278  -10.6599 C.ar        1 OZZ       0.1691
     18 C18        32.3981   -7.8762  -11.9505 C.ar        1 OZZ       0.2168
     19 C19        32.7367   -6.5851  -12.4340 C.ar        1 OZZ       0.1162
     20 N20        31.6425   -8.7427  -12.6847 N.2         1 OZZ      -0.1404
     21 O21        34.6960   -5.2678   -9.5867 O.3         1 OZZ      -0.1763
     22 O22        34.0027   -7.7028   -8.6361 O.3         1 OZZ      -0.1825
     23 O23        33.8493   -4.2855  -13.4801 O.2         1 OZZ      -0.3823
     24 O24        31.3583   -9.9520  -12.2724 O.2         1 OZZ      -0.4541
     25 O25        31.1913   -8.4575  -13.7625 O.2         1 OZZ      -0.4541
     26 C26        42.2916   -4.4057  -12.5263 C.2         1 OZZ       0.0592
     27 C27        42.8801   -5.5854  -12.2438 C.2         1 OZZ      -0.0116
     28 C28        42.1008   -6.6988  -12.0949 C.2         1 OZZ       0.0683
     29 C29        40.1986   -5.3977  -12.5153 C.2         1 OZZ       0.0592
     30 C30        40.7424   -6.5992  -12.2229 C.2         1 OZZ      -0.0116
     31 O31        42.6161   -7.7897  -11.8798 O.2         1 OZZ      -0.4519
     32 H1         37.7370   -2.7326  -14.7938 H           1 OZZ       0.0667
     33 H2         39.5698   -4.0597  -14.8394 H           1 OZZ       0.0678
     34 H3         41.0791   -2.2348  -12.9434 H           1 OZZ       0.0999
     35 H4         39.0869   -0.7616  -12.8893 H           1 OZZ       0.0749
     36 H5         36.9739   -0.5589  -12.1223 H           1 OZZ       0.0477
     37 H6         37.7785   -0.6480  -15.4081 H           1 OZZ       0.2102
     38 H7         40.4473   -2.6450  -16.3021 H           1 OZZ       0.2101
     39 H8         36.4225   -3.3095  -12.9009 H           1 OZZ       0.0470
     40 H9         34.2537   -1.7193  -12.8293 H           1 OZZ       0.0643
     41 H10        34.8733   -1.4473  -11.1789 H           1 OZZ       0.0643
     42 H11        34.0875   -3.4042  -10.5891 H           1 OZZ       0.1867
     43 H12        32.6345   -9.1438  -10.2626 H           1 OZZ       0.1086
     44 H13        32.4074   -6.3212  -13.3663 H           1 OZZ       0.1563
     45 H14        34.0744   -4.5798   -9.2831 H           1 OZZ       0.3540
     46 H15        34.9682   -7.5111   -8.5960 H           1 OZZ       0.3497
     47 H16        42.8847   -3.6120  -12.6396 H           1 OZZ       0.1185
     48 H17        43.8701   -5.6431  -12.1535 H           1 OZZ       0.0387
     49 H18        39.2092   -5.3485  -12.6193 H           1 OZZ       0.1185
     50 H19        40.1612   -7.3978  -12.1101 H           1 OZZ       0.0387
@<TRIPOS>BOND
     1     1     2   1
     2     1     5   1
     3     1     8   1
     4     2     3   1
     5     2     9   1
     6     3     4   1
     7     3     7   1
     8     4     5   1
     9     5     6   1
    10     6    10   2
    11     7    26   1
    12     7    29   1
    13    10    11   1
    14    11    12   1
    15    12    13  am
    16    13    14   1
    17    13    23   2
    18    14    15  ar
    19    14    19  ar
    20    15    16  ar
    21    15    21   1
    22    16    17  ar
    23    16    22   1
    24    17    18  ar
    25    18    19  ar
    26    18    20   1
    27    20    24   2
    28    20    25   2
    29    26    27   2
    30    27    28   1
    31    28    30   1
    32    28    31   2
    33    29    30   2
    34     1    32   1
    35     2    33   1
    36     3    34   1
    37     5    35   1
    38     6    36   1
    39     8    37   1
    40     9    38   1
    41    10    39   1
    42    11    40   1
    43    11    41   1
    44    12    42   1
    45    17    43   1
    46    19    44   1
    47    21    45   1
    48    22    46   1
    49    26    47   1
    50    27    48   1
    51    29    49   1
    52    30    50   1
@<TRIPOS>SUBSTRUCTURE
     1  OZZ      1

