@<TRIPOS>MOLECULE
3ozt_ligand_011
    50    52
SMALL
GAST_HUCK
****
This file was generated by PARSER (from files_GN.cpp)

@<TRIPOS>ATOM
      1 C1         40.7296   -1.9109  -14.0157 C.3         1 OZZ       0.1189
      2 C2         41.9502   -2.5686  -13.3419 C.3         1 OZZ       0.1403
      3 C3         41.3851   -3.1236  -12.0027 C.3         1 OZZ       0.2027
      4 O4         39.9816   -2.7873  -11.9579 O.3         1 OZZ      -0.3296
      5 C5         39.7541   -1.6846  -12.8413 C.3         1 OZZ       0.1082
      6 C6         38.3492   -1.5960  -13.2134 C.2         1 OZZ      -0.0658
      7 N7         41.6612   -4.5120  -11.8270 N.pl3       1 OZZ      -0.2105
      8 O8         41.0394   -0.7068  -14.7248 O.3         1 OZZ      -0.3846
      9 O9         43.0145   -1.6468  -13.0919 O.3         1 OZZ      -0.3834
     10 C10        37.6411   -2.6225  -13.7234 C.2         1 OZZ      -0.0744
     11 C11        36.2366   -2.5953  -14.1011 C.3         1 OZZ       0.0473
     12 N12        35.5836   -1.3277  -14.0259 N.am        1 OZZ      -0.2765
     13 C13        34.9515   -0.8270  -12.9695 C.2         1 OZZ       0.2411
     14 C14        34.4209    0.4618  -13.0173 C.ar        1 OZZ       0.2482
     15 C15        33.7289    0.9394  -14.1581 C.ar        1 OZZ       0.3921
     16 C16        33.2306    2.2537  -14.1956 C.ar        1 OZZ       0.3797
     17 C17        33.4061    3.0999  -13.0883 C.ar        1 OZZ       0.1691
     18 C18        34.0527    2.6513  -11.9130 C.ar        1 OZZ       0.2168
     19 C19        34.5629    1.3310  -11.9050 C.ar        1 OZZ       0.1162
     20 N20        34.1827    3.4659  -10.8261 N.2         1 OZZ      -0.1404
     21 O21        33.4844    0.1271  -15.2161 O.3         1 OZZ      -0.1763
     22 O22        32.5621    2.6845  -15.2953 O.3         1 OZZ      -0.1825
     23 O23        34.8878   -1.4628  -11.9229 O.2         1 OZZ      -0.3823
     24 O24        33.7610    4.7025  -10.8243 O.2         1 OZZ      -0.4541
     25 O25        34.6824    3.1016   -9.7953 O.2         1 OZZ      -0.4541
     26 C26        40.7368   -5.4475  -12.0979 C.2         1 OZZ       0.0592
     27 C27        40.9722   -6.7527  -11.8531 C.2         1 OZZ      -0.0116
     28 C28        42.1873   -7.1256  -11.3476 C.2         1 OZZ       0.0683
     29 C29        42.8808   -4.8900  -11.4101 C.2         1 OZZ       0.0592
     30 C30        43.1593   -6.1832  -11.1502 C.2         1 OZZ      -0.0116
     31 O31        42.4265   -8.3046  -11.1438 O.2         1 OZZ      -0.4519
     32 H1         40.3028   -2.6185  -14.7308 H           1 OZZ       0.0667
     33 H2         42.3333   -3.3644  -13.9878 H           1 OZZ       0.0678
     34 H3         41.8195   -2.5652  -11.1607 H           1 OZZ       0.0999
     35 H4         40.0379   -0.7594  -12.3196 H           1 OZZ       0.0749
     36 H5         37.8861   -0.7268  -13.0439 H           1 OZZ       0.0477
     37 H6         41.3700   -0.0809  -14.0469 H           1 OZZ       0.2102
     38 H7         43.2951   -1.3256  -13.9781 H           1 OZZ       0.2101
     39 H8         38.1095   -3.4912  -13.8502 H           1 OZZ       0.0470
     40 H9         35.6988   -3.3371  -13.5072 H           1 OZZ       0.0643
     41 H10        36.1699   -2.9193  -15.1482 H           1 OZZ       0.0643
     42 H11        35.6626   -0.7626  -14.8115 H           1 OZZ       0.1867
     43 H12        33.0230    4.0470  -13.1390 H           1 OZZ       0.1086
     44 H13        35.0569    0.9925  -11.0779 H           1 OZZ       0.1563
     45 H14        32.5094    0.0595  -15.2534 H           1 OZZ       0.3540
     46 H15        32.9672    3.5450  -15.5514 H           1 OZZ       0.3497
     47 H16        39.8622   -5.2055  -12.5049 H           1 OZZ       0.1185
     48 H17        40.2782   -7.4345  -12.0640 H           1 OZZ       0.0387
     49 H18        43.6052   -4.2209  -11.2710 H           1 OZZ       0.1185
     50 H19        44.0633   -6.4473  -10.8251 H           1 OZZ       0.0387
@<TRIPOS>BOND
     1     1     2   1
     2     1     5   1
     3     1     8   1
     4     2     3   1
     5     2     9   1
     6     3     4   1
     7     3     7   1
     8     4     5   1
     9     5     6   1
    10     6    10   2
    11     7    26   1
    12     7    29   1
    13    10    11   1
    14    11    12   1
    15    12    13  am
    16    13    14   1
    17    13    23   2
    18    14    15  ar
    19    14    19  ar
    20    15    16  ar
    21    15    21   1
    22    16    17  ar
    23    16    22   1
    24    17    18  ar
    25    18    19  ar
    26    18    20   1
    27    20    24   2
    28    20    25   2
    29    26    27   2
    30    27    28   1
    31    28    30   1
    32    28    31   2
    33    29    30   2
    34     1    32   1
    35     2    33   1
    36     3    34   1
    37     5    35   1
    38     6    36   1
    39     8    37   1
    40     9    38   1
    41    10    39   1
    42    11    40   1
    43    11    41   1
    44    12    42   1
    45    17    43   1
    46    19    44   1
    47    21    45   1
    48    22    46   1
    49    26    47   1
    50    27    48   1
    51    29    49   1
    52    30    50   1
@<TRIPOS>SUBSTRUCTURE
     1  OZZ      1

