@<TRIPOS>MOLECULE
3ozt_ligand_031
    50    52
SMALL
GAST_HUCK
****
This file was generated by PARSER (from files_GN.cpp)

@<TRIPOS>ATOM
      1 C1         34.2208    1.3651  -14.1899 C.3         1 OZZ       0.1189
      2 C2         33.6224    2.7921  -14.1414 C.3         1 OZZ       0.1403
      3 C3         33.5221    3.0858  -12.6127 C.3         1 OZZ       0.2027
      4 O4         34.2244    2.0293  -11.9509 O.3         1 OZZ      -0.3296
      5 C5         34.0563    0.8548  -12.7482 C.3         1 OZZ       0.1082
      6 C6         34.9629   -0.2350  -12.4290 C.2         1 OZZ      -0.0658
      7 N7         34.0035    4.3338  -12.0966 N.pl3       1 OZZ      -0.2105
      8 O8         33.6243    0.4793  -15.1405 O.3         1 OZZ      -0.3846
      9 O9         32.3381    2.8855  -14.7759 O.3         1 OZZ      -0.3834
     10 C10        35.8892   -0.2236  -11.4529 C.2         1 OZZ      -0.0744
     11 C11        36.7584   -1.3581  -11.2063 C.3         1 OZZ       0.0473
     12 N12        36.0042   -2.4801  -10.7436 N.am        1 OZZ      -0.2765
     13 C13        35.7116   -3.5845  -11.4199 C.2         1 OZZ       0.2411
     14 C14        35.0777   -4.6679  -10.8069 C.ar        1 OZZ       0.2482
     15 C15        34.1905   -5.5165  -11.5201 C.ar        1 OZZ       0.3921
     16 C16        33.6400   -6.6557  -10.9020 C.ar        1 OZZ       0.3797
     17 C17        33.9459   -6.9503   -9.5608 C.ar        1 OZZ       0.1691
     18 C18        34.8455   -6.1516   -8.8193 C.ar        1 OZZ       0.2168
     19 C19        35.3727   -4.9994   -9.4589 C.ar        1 OZZ       0.1162
     20 N20        35.2217   -6.4979   -7.5516 N.2         1 OZZ      -0.1404
     21 O21        33.7869   -5.2306  -12.7879 O.3         1 OZZ      -0.1763
     22 O22        32.7954   -7.4595  -11.5958 O.3         1 OZZ      -0.1825
     23 O23        36.0451   -3.6861  -12.5958 O.2         1 OZZ      -0.3823
     24 O24        34.7653   -7.5588   -6.9472 O.2         1 OZZ      -0.4541
     25 O25        36.0804   -5.9075   -6.9492 O.2         1 OZZ      -0.4541
     26 C26        33.4121    4.8497  -11.0088 C.2         1 OZZ       0.0592
     27 C27        33.8095    6.0166  -10.4682 C.2         1 OZZ      -0.0116
     28 C28        34.8806    6.6674  -11.0148 C.2         1 OZZ       0.0683
     29 C29        35.1230    4.9293  -12.5627 C.2         1 OZZ       0.0592
     30 C30        35.5384    6.1217  -12.0757 C.2         1 OZZ      -0.0116
     31 O31        35.2628    7.7283  -10.5371 O.2         1 OZZ      -0.4519
     32 H1         35.2861    1.4383  -14.4300 H           1 OZZ       0.0667
     33 H2         34.2886    3.5007  -14.6492 H           1 OZZ       0.0678
     34 H3         32.4658    2.9568  -12.3571 H           1 OZZ       0.0999
     35 H4         33.0349    0.4692  -12.6153 H           1 OZZ       0.0749
     36 H5         34.8680   -1.0651  -12.9781 H           1 OZZ       0.0477
     37 H6         32.6506    0.5610  -15.0374 H           1 OZZ       0.2102
     38 H7         32.4719    3.4702  -15.5683 H           1 OZZ       0.2101
     39 H8         35.9878    0.5844  -10.8812 H           1 OZZ       0.0470
     40 H9         37.4681   -1.1108  -10.4157 H           1 OZZ       0.0643
     41 H10        37.3431   -1.5747  -12.1028 H           1 OZZ       0.0643
     42 H11        35.6725   -2.4152   -9.8328 H           1 OZZ       0.1867
     43 H12        33.5106   -7.7693   -9.1315 H           1 OZZ       0.1086
     44 H13        36.0237   -4.4074   -8.9353 H           1 OZZ       0.1563
     45 H14        33.2063   -4.4444  -12.7003 H           1 OZZ       0.3540
     46 H15        32.0015   -7.5172  -11.0260 H           1 OZZ       0.3497
     47 H16        32.6792    4.3672  -10.5524 H           1 OZZ       0.1185
     48 H17        33.3454    6.3765   -9.6649 H           1 OZZ       0.0387
     49 H18        35.6749    4.4887  -13.2667 H           1 OZZ       0.1185
     50 H19        36.3487    6.5589  -12.4371 H           1 OZZ       0.0387
@<TRIPOS>BOND
     1     1     2   1
     2     1     5   1
     3     1     8   1
     4     2     3   1
     5     2     9   1
     6     3     4   1
     7     3     7   1
     8     4     5   1
     9     5     6   1
    10     6    10   2
    11     7    26   1
    12     7    29   1
    13    10    11   1
    14    11    12   1
    15    12    13  am
    16    13    14   1
    17    13    23   2
    18    14    15  ar
    19    14    19  ar
    20    15    16  ar
    21    15    21   1
    22    16    17  ar
    23    16    22   1
    24    17    18  ar
    25    18    19  ar
    26    18    20   1
    27    20    24   2
    28    20    25   2
    29    26    27   2
    30    27    28   1
    31    28    30   1
    32    28    31   2
    33    29    30   2
    34     1    32   1
    35     2    33   1
    36     3    34   1
    37     5    35   1
    38     6    36   1
    39     8    37   1
    40     9    38   1
    41    10    39   1
    42    11    40   1
    43    11    41   1
    44    12    42   1
    45    17    43   1
    46    19    44   1
    47    21    45   1
    48    22    46   1
    49    26    47   1
    50    27    48   1
    51    29    49   1
    52    30    50   1
@<TRIPOS>SUBSTRUCTURE
     1  OZZ      1

