@<TRIPOS>MOLECULE
3ozt_ligand_059
    50    52
SMALL
GAST_HUCK
****
This file was generated by PARSER (from files_GN.cpp)

@<TRIPOS>ATOM
      1 C1         36.9007   -8.2986   -5.9429 C.3         1 OZZ       0.1189
      2 C2         36.1425   -7.5613   -7.0704 C.3         1 OZZ       0.1403
      3 C3         36.1384   -6.0766   -6.6289 C.3         1 OZZ       0.2027
      4 O4         37.4192   -5.9798   -5.9799 O.3         1 OZZ      -0.3296
      5 C5         37.6379   -7.1594   -5.1918 C.3         1 OZZ       0.1082
      6 C6         39.0717   -7.3400   -4.9862 C.2         1 OZZ      -0.0658
      7 N7         35.9746   -5.0493   -7.6140 N.pl3       1 OZZ      -0.2105
      8 O8         36.0092   -8.9873   -5.0606 O.3         1 OZZ      -0.3846
      9 O9         34.8314   -8.0845   -7.2894 O.3         1 OZZ      -0.3834
     10 C10        39.6012   -8.3506   -4.2760 C.2         1 OZZ      -0.0744
     11 C11        41.0271   -8.4883   -4.0062 C.3         1 OZZ       0.0473
     12 N12        41.7877   -8.4711   -5.2262 N.am        1 OZZ      -0.2765
     13 C13        42.5712   -9.4121   -5.7417 C.2         1 OZZ       0.2411
     14 C14        43.1256   -9.3083   -7.0410 C.ar        1 OZZ       0.2482
     15 C15        42.8322   -8.2310   -7.9263 C.ar        1 OZZ       0.3921
     16 C16        43.3647   -8.1948   -9.2294 C.ar        1 OZZ       0.3797
     17 C17        44.1731   -9.2447   -9.6960 C.ar        1 OZZ       0.1691
     18 C18        44.4818  -10.3471   -8.8695 C.ar        1 OZZ       0.2168
     19 C19        43.9659  -10.3405   -7.5458 C.ar        1 OZZ       0.1162
     20 N20        45.2480  -11.3786   -9.3425 N.2         1 OZZ      -0.1404
     21 O21        41.9896   -7.2195   -7.5975 O.3         1 OZZ      -0.1763
     22 O22        43.0691   -7.1746  -10.0712 O.3         1 OZZ      -0.1825
     23 O23        42.7634  -10.4306   -5.0855 O.2         1 OZZ      -0.3823
     24 O24        45.6810  -11.4248  -10.5770 O.2         1 OZZ      -0.4541
     25 O25        45.6066  -12.2901   -8.6471 O.2         1 OZZ      -0.4541
     26 C26        36.3838   -3.7995   -7.3202 C.2         1 OZZ       0.0592
     27 C27        36.2381   -2.7848   -8.2007 C.2         1 OZZ      -0.0116
     28 C28        35.6207   -3.0279   -9.3918 C.2         1 OZZ       0.0683
     29 C29        35.2688   -5.2508   -8.7404 C.2         1 OZZ       0.0592
     30 C30        35.1033   -4.2640   -9.6527 C.2         1 OZZ      -0.0116
     31 O31        35.5016   -2.1289  -10.2166 O.2         1 OZZ      -0.4519
     32 H1         37.5958   -9.0269   -6.3765 H           1 OZZ       0.0667
     33 H2         36.7188   -7.6540   -7.9933 H           1 OZZ       0.0678
     34 H3         35.3568   -5.9386   -5.8709 H           1 OZZ       0.0999
     35 H4         37.1733   -6.9918   -4.2139 H           1 OZZ       0.0749
     36 H5         39.6863   -6.6585   -5.3744 H           1 OZZ       0.0477
     37 H6         35.5784   -9.6620   -5.6254 H           1 OZZ       0.2102
     38 H7         34.9625   -9.0473   -7.4297 H           1 OZZ       0.2101
     39 H8         38.9909   -9.0368   -3.8917 H           1 OZZ       0.0470
     40 H9         41.2012   -9.3940   -3.4099 H           1 OZZ       0.0643
     41 H10        41.3650   -7.6379   -3.4089 H           1 OZZ       0.0643
     42 H11        41.6778   -7.6682   -5.7586 H           1 OZZ       0.1867
     43 H12        44.5339   -9.1915  -10.6524 H           1 OZZ       0.1086
     44 H13        44.1952  -11.1334   -6.9417 H           1 OZZ       0.1563
     45 H14        42.5731   -6.4417   -7.4750 H           1 OZZ       0.3540
     46 H15        42.1521   -7.3590  -10.3660 H           1 OZZ       0.3497
     47 H16        36.8043   -3.5896   -6.4422 H           1 OZZ       0.1185
     48 H17        36.5511   -1.8707   -7.9628 H           1 OZZ       0.0387
     49 H18        34.8365   -6.1243   -8.9354 H           1 OZZ       0.1185
     50 H19        34.5812   -4.4317  -10.4804 H           1 OZZ       0.0387
@<TRIPOS>BOND
     1     1     2   1
     2     1     5   1
     3     1     8   1
     4     2     3   1
     5     2     9   1
     6     3     4   1
     7     3     7   1
     8     4     5   1
     9     5     6   1
    10     6    10   2
    11     7    26   1
    12     7    29   1
    13    10    11   1
    14    11    12   1
    15    12    13  am
    16    13    14   1
    17    13    23   2
    18    14    15  ar
    19    14    19  ar
    20    15    16  ar
    21    15    21   1
    22    16    17  ar
    23    16    22   1
    24    17    18  ar
    25    18    19  ar
    26    18    20   1
    27    20    24   2
    28    20    25   2
    29    26    27   2
    30    27    28   1
    31    28    30   1
    32    28    31   2
    33    29    30   2
    34     1    32   1
    35     2    33   1
    36     3    34   1
    37     5    35   1
    38     6    36   1
    39     8    37   1
    40     9    38   1
    41    10    39   1
    42    11    40   1
    43    11    41   1
    44    12    42   1
    45    17    43   1
    46    19    44   1
    47    21    45   1
    48    22    46   1
    49    26    47   1
    50    27    48   1
    51    29    49   1
    52    30    50   1
@<TRIPOS>SUBSTRUCTURE
     1  OZZ      1

