@<TRIPOS>MOLECULE
3ozt_ligand_074
    50    52
SMALL
GAST_HUCK
****
This file was generated by PARSER (from files_GN.cpp)

@<TRIPOS>ATOM
      1 C1         35.7168   -7.1800   -6.1197 C.3         1 OZZ       0.1189
      2 C2         36.5335   -7.9287   -5.0495 C.3         1 OZZ       0.1403
      3 C3         37.7914   -8.3929   -5.8212 C.3         1 OZZ       0.2027
      4 O4         38.0074   -7.3697   -6.8040 O.3         1 OZZ      -0.3296
      5 C5         36.7724   -6.7476   -7.1687 C.3         1 OZZ       0.1082
      6 C6         36.9917   -5.3115   -7.3060 C.2         1 OZZ      -0.0658
      7 N7         38.9169   -8.6556   -4.9794 N.pl3       1 OZZ      -0.2105
      8 O8         34.7324   -8.0130   -6.7430 O.3         1 OZZ      -0.3846
      9 O9         35.8108   -9.0123   -4.4565 O.3         1 OZZ      -0.3834
     10 C10        36.1165   -4.4963   -7.9108 C.2         1 OZZ      -0.0744
     11 C11        36.4164   -3.0966   -8.1844 C.3         1 OZZ       0.0473
     12 N12        36.7045   -2.3569   -6.9920 N.am        1 OZZ      -0.2765
     13 C13        37.9041   -2.1868   -6.4437 C.2         1 OZZ       0.2411
     14 C14        38.0279   -1.5550   -5.2283 C.ar        1 OZZ       0.2482
     15 C15        37.9400   -2.2862   -4.0206 C.ar        1 OZZ       0.3921
     16 C16        38.0880   -1.6199   -2.7887 C.ar        1 OZZ       0.3797
     17 C17        38.3145   -0.2274   -2.7592 C.ar        1 OZZ       0.1691
     18 C18        38.3967    0.5291   -3.9506 C.ar        1 OZZ       0.2168
     19 C19        38.2643   -0.1633   -5.1840 C.ar        1 OZZ       0.1162
     20 N20        38.5905    1.8811   -3.9186 N.2         1 OZZ      -0.1404
     21 O21        37.7124   -3.6288   -4.0353 O.3         1 OZZ      -0.1763
     22 O22        38.0210   -2.3072   -1.6212 O.3         1 OZZ      -0.1825
     23 O23        38.9237   -2.6590   -6.9459 O.2         1 OZZ      -0.3823
     24 O24        38.7243    2.5399   -2.7939 O.2         1 OZZ      -0.4541
     25 O25        38.6399    2.5574   -4.9063 O.2         1 OZZ      -0.4541
     26 C26        38.8480   -9.6660   -4.0967 C.2         1 OZZ       0.0592
     27 C27        39.8654   -9.9287   -3.2500 C.2         1 OZZ      -0.0116
     28 C28        40.9954   -9.1583   -3.3087 C.2         1 OZZ       0.0683
     29 C29        40.0420   -7.9182   -5.0494 C.2         1 OZZ       0.0592
     30 C30        41.0827   -8.1443   -4.2225 C.2         1 OZZ      -0.0116
     31 O31        41.9260   -9.3801   -2.5512 O.2         1 OZZ      -0.4519
     32 H1         35.1959   -6.3304   -5.6659 H           1 OZZ       0.0667
     33 H2         36.8226   -7.2281   -4.2591 H           1 OZZ       0.0678
     34 H3         37.5433   -9.3023   -6.3875 H           1 OZZ       0.0999
     35 H4         36.5000   -7.1404   -8.1532 H           1 OZZ       0.0749
     36 H5         37.8762   -4.9501   -7.0201 H           1 OZZ       0.0477
     37 H6         35.1665   -8.8749   -6.9229 H           1 OZZ       0.2102
     38 H7         35.6088   -9.6238   -5.1982 H           1 OZZ       0.2101
     39 H8         35.2620   -4.8691   -8.2650 H           1 OZZ       0.0470
     40 H9         35.5523   -2.6306   -8.6583 H           1 OZZ       0.0643
     41 H10        37.2427   -3.0408   -8.9042 H           1 OZZ       0.0643
     42 H11        35.9463   -1.9455   -6.5420 H           1 OZZ       0.1867
     43 H12        38.4157    0.2281   -1.8489 H           1 OZZ       0.1086
     44 H13        38.3233    0.3596   -6.0621 H           1 OZZ       0.1563
     45 H14        37.0076   -3.7861   -3.3693 H           1 OZZ       0.3540
     46 H15        37.0971   -2.2006   -1.3152 H           1 OZZ       0.3497
     47 H16        38.0459  -10.2516   -4.0507 H           1 OZZ       0.1185
     48 H17        39.7927  -10.6774   -2.5982 H           1 OZZ       0.0387
     49 H18        40.1378   -7.1759   -5.7061 H           1 OZZ       0.1185
     50 H19        41.9008   -7.5791   -4.2787 H           1 OZZ       0.0387
@<TRIPOS>BOND
     1     1     2   1
     2     1     5   1
     3     1     8   1
     4     2     3   1
     5     2     9   1
     6     3     4   1
     7     3     7   1
     8     4     5   1
     9     5     6   1
    10     6    10   2
    11     7    26   1
    12     7    29   1
    13    10    11   1
    14    11    12   1
    15    12    13  am
    16    13    14   1
    17    13    23   2
    18    14    15  ar
    19    14    19  ar
    20    15    16  ar
    21    15    21   1
    22    16    17  ar
    23    16    22   1
    24    17    18  ar
    25    18    19  ar
    26    18    20   1
    27    20    24   2
    28    20    25   2
    29    26    27   2
    30    27    28   1
    31    28    30   1
    32    28    31   2
    33    29    30   2
    34     1    32   1
    35     2    33   1
    36     3    34   1
    37     5    35   1
    38     6    36   1
    39     8    37   1
    40     9    38   1
    41    10    39   1
    42    11    40   1
    43    11    41   1
    44    12    42   1
    45    17    43   1
    46    19    44   1
    47    21    45   1
    48    22    46   1
    49    26    47   1
    50    27    48   1
    51    29    49   1
    52    30    50   1
@<TRIPOS>SUBSTRUCTURE
     1  OZZ      1

