@<TRIPOS>MOLECULE
3ozt_ligand_055
    50    52
SMALL
GAST_HUCK
****
This file was generated by PARSER (from files_GN.cpp)

@<TRIPOS>ATOM
      1 C1         39.6385   -1.0249   -5.5083 C.3         1 OZZ       0.1189
      2 C2         40.0842    0.2592   -4.7780 C.3         1 OZZ       0.1403
      3 C3         38.8148    1.1603   -4.8200 C.3         1 OZZ       0.2027
      4 O4         37.7535    0.3689   -5.3883 O.3         1 OZZ      -0.3296
      5 C5         38.3619   -0.5890   -6.2605 C.3         1 OZZ       0.1082
      6 C6         37.4224   -1.6673   -6.5257 C.2         1 OZZ      -0.0658
      7 N7         38.4779    1.7003   -3.5466 N.pl3       1 OZZ      -0.2105
      8 O8         40.6270   -1.5589   -6.3864 O.3         1 OZZ      -0.3846
      9 O9         41.1874    0.9074   -5.4200 O.3         1 OZZ      -0.3834
     10 C10        37.2726   -2.2432   -7.7294 C.2         1 OZZ      -0.0744
     11 C11        36.4112   -3.3881   -7.9581 C.3         1 OZZ       0.0473
     12 N12        36.7515   -4.4846   -7.0983 N.am        1 OZZ      -0.2765
     13 C13        36.3789   -5.7519   -7.2471 C.2         1 OZZ       0.2411
     14 C14        36.7455   -6.7325   -6.3103 C.ar        1 OZZ       0.2482
     15 C15        35.9525   -7.8921   -6.0940 C.ar        1 OZZ       0.3921
     16 C16        36.3118   -8.8238   -5.0981 C.ar        1 OZZ       0.3797
     17 C17        37.4714   -8.6392   -4.3285 C.ar        1 OZZ       0.1691
     18 C18        38.3133   -7.5195   -4.5361 C.ar        1 OZZ       0.2168
     19 C19        37.9180   -6.5804   -5.5212 C.ar        1 OZZ       0.1162
     20 N20        39.4592   -7.3643   -3.8096 N.2         1 OZZ      -0.1404
     21 O21        34.8055   -8.1150   -6.7976 O.3         1 OZZ      -0.1763
     22 O22        35.4965   -9.8730   -4.8344 O.3         1 OZZ      -0.1825
     23 O23        35.7031   -6.0630   -8.2206 O.2         1 OZZ      -0.3823
     24 O24        39.8411   -8.2256   -2.9042 O.2         1 OZZ      -0.4541
     25 O25        40.2047   -6.4309   -3.9603 O.2         1 OZZ      -0.4541
     26 C26        38.9838    2.8846   -3.1633 C.2         1 OZZ       0.0592
     27 C27        38.7085    3.4072   -1.9539 C.2         1 OZZ      -0.0116
     28 C28        37.9026    2.7057   -1.0953 C.2         1 OZZ       0.0683
     29 C29        37.7353    0.9895   -2.6797 C.2         1 OZZ       0.0592
     30 C30        37.4242    1.4792   -1.4629 C.2         1 OZZ      -0.0116
     31 O31        37.6304    3.1670    0.0035 O.2         1 OZZ      -0.4519
     32 H1         39.3944   -1.7871   -4.7631 H           1 OZZ       0.0667
     33 H2         40.3852    0.0166   -3.7524 H           1 OZZ       0.0678
     34 H3         38.9699    1.9737   -5.5453 H           1 OZZ       0.0999
     35 H4         38.6423   -0.0722   -7.1862 H           1 OZZ       0.0749
     36 H5         36.9044   -2.0230   -5.7544 H           1 OZZ       0.0477
     37 H6         40.7981   -0.8497   -7.0425 H           1 OZZ       0.2102
     38 H7         41.3600    1.7086   -4.8786 H           1 OZZ       0.2101
     39 H8         37.7915   -1.8961   -8.5039 H           1 OZZ       0.0470
     40 H9         36.5018   -3.6967   -9.0041 H           1 OZZ       0.0643
     41 H10        35.3727   -3.1060   -7.7792 H           1 OZZ       0.0643
     42 H11        37.2602   -4.2645   -6.2994 H           1 OZZ       0.1867
     43 H12        37.6909   -9.3272   -3.6039 H           1 OZZ       0.1086
     44 H13        38.5254   -5.7709   -5.6729 H           1 OZZ       0.1563
     45 H14        34.7671   -9.0792   -6.9636 H           1 OZZ       0.3540
     46 H15        36.0906  -10.6544   -4.7789 H           1 OZZ       0.3497
     47 H16        39.5865    3.4029   -3.7690 H           1 OZZ       0.1185
     48 H17        39.0952    4.2833   -1.6842 H           1 OZZ       0.0387
     49 H18        37.3917    0.0893   -2.9171 H           1 OZZ       0.1185
     50 H19        36.8659    0.9409   -0.8331 H           1 OZZ       0.0387
@<TRIPOS>BOND
     1     1     2   1
     2     1     5   1
     3     1     8   1
     4     2     3   1
     5     2     9   1
     6     3     4   1
     7     3     7   1
     8     4     5   1
     9     5     6   1
    10     6    10   2
    11     7    26   1
    12     7    29   1
    13    10    11   1
    14    11    12   1
    15    12    13  am
    16    13    14   1
    17    13    23   2
    18    14    15  ar
    19    14    19  ar
    20    15    16  ar
    21    15    21   1
    22    16    17  ar
    23    16    22   1
    24    17    18  ar
    25    18    19  ar
    26    18    20   1
    27    20    24   2
    28    20    25   2
    29    26    27   2
    30    27    28   1
    31    28    30   1
    32    28    31   2
    33    29    30   2
    34     1    32   1
    35     2    33   1
    36     3    34   1
    37     5    35   1
    38     6    36   1
    39     8    37   1
    40     9    38   1
    41    10    39   1
    42    11    40   1
    43    11    41   1
    44    12    42   1
    45    17    43   1
    46    19    44   1
    47    21    45   1
    48    22    46   1
    49    26    47   1
    50    27    48   1
    51    29    49   1
    52    30    50   1
@<TRIPOS>SUBSTRUCTURE
     1  OZZ      1

