@<TRIPOS>MOLECULE
3ozt_ligand_088
    50    52
SMALL
GAST_HUCK
****
This file was generated by PARSER (from files_GN.cpp)

@<TRIPOS>ATOM
      1 C1         39.8341   -6.9978   -4.2762 C.3         1 OZZ       0.1189
      2 C2         39.7252   -5.5154   -3.8855 C.3         1 OZZ       0.1403
      3 C3         39.9677   -4.8137   -5.2432 C.3         1 OZZ       0.2027
      4 O4         39.4553   -5.6974   -6.2538 O.3         1 OZZ      -0.3296
      5 C5         39.1956   -6.9965   -5.6884 C.3         1 OZZ       0.1082
      6 C6         37.7565   -7.2524   -5.7121 C.2         1 OZZ      -0.0658
      7 N7         39.4029   -3.5118   -5.3801 N.pl3       1 OZZ      -0.2105
      8 O8         41.1980   -7.4199   -4.3471 O.3         1 OZZ      -0.3846
      9 O9         40.6492   -5.1341   -2.8697 O.3         1 OZZ      -0.3834
     10 C10        37.0270   -7.1816   -6.8405 C.2         1 OZZ      -0.0744
     11 C11        35.6138   -7.5142   -6.8872 C.3         1 OZZ       0.0473
     12 N12        35.0539   -7.4146   -8.2072 N.am        1 OZZ      -0.2765
     13 C13        34.6360   -6.3019   -8.8121 C.2         1 OZZ       0.2411
     14 C14        34.0743   -6.3261  -10.0973 C.ar        1 OZZ       0.2482
     15 C15        34.2080   -5.2289  -10.9940 C.ar        1 OZZ       0.3921
     16 C16        33.6027   -5.2640  -12.2703 C.ar        1 OZZ       0.3797
     17 C17        32.8581   -6.3872  -12.6619 C.ar        1 OZZ       0.1691
     18 C18        32.6816   -7.4970  -11.8080 C.ar        1 OZZ       0.2168
     19 C19        33.3148   -7.4436  -10.5375 C.ar        1 OZZ       0.1162
     20 N20        31.8991   -8.5501  -12.1859 N.2         1 OZZ      -0.1404
     21 O21        34.9186   -4.1225  -10.6620 O.3         1 OZZ      -0.1763
     22 O22        33.6826   -4.2212  -13.1361 O.3         1 OZZ      -0.1825
     23 O23        34.6990   -5.2495   -8.1933 O.2         1 OZZ      -0.3823
     24 O24        31.2566   -8.5866  -13.3260 O.2         1 OZZ      -0.4541
     25 O25        31.7150   -9.5157  -11.4905 O.2         1 OZZ      -0.4541
     26 C26        40.1875   -2.4533   -5.6407 C.2         1 OZZ       0.0592
     27 C27        39.6663   -1.2215   -5.8203 C.2         1 OZZ      -0.0116
     28 C28        38.3153   -1.0506   -5.7139 C.2         1 OZZ       0.0683
     29 C29        38.0690   -3.3459   -5.3328 C.2         1 OZZ       0.0592
     30 C30        37.5074   -2.1303   -5.4895 C.2         1 OZZ      -0.0116
     31 O31        37.8327    0.0735   -5.7801 O.2         1 OZZ      -0.4519
     32 H1         39.3113   -7.6475   -3.5672 H           1 OZZ       0.0667
     33 H2         38.7156   -5.3108   -3.5230 H           1 OZZ       0.0678
     34 H3         41.0543   -4.8041   -5.3958 H           1 OZZ       0.0999
     35 H4         39.6816   -7.7487   -6.3180 H           1 OZZ       0.0749
     36 H5         37.2991   -7.5073   -4.8666 H           1 OZZ       0.0477
     37 H6         41.5399   -7.3646   -3.4296 H           1 OZZ       0.2102
     38 H7         40.4712   -4.1842   -2.6980 H           1 OZZ       0.2101
     39 H8         37.4809   -6.9080   -7.6791 H           1 OZZ       0.0470
     40 H9         35.0519   -6.8872   -6.1894 H           1 OZZ       0.0643
     41 H10        35.4923   -8.5507   -6.5675 H           1 OZZ       0.0643
     42 H11        34.9957   -8.2343   -8.7119 H           1 OZZ       0.1867
     43 H12        32.4186   -6.3744  -13.5835 H           1 OZZ       0.1086
     44 H13        33.1769   -8.2291   -9.8989 H           1 OZZ       0.1563
     45 H14        34.2690   -3.5716  -10.1790 H           1 OZZ       0.3540
     46 H15        33.7117   -3.4171  -12.5782 H           1 OZZ       0.3497
     47 H16        41.1754   -2.5528   -5.7332 H           1 OZZ       0.1185
     48 H17        40.2612   -0.4534   -6.0344 H           1 OZZ       0.0387
     49 H18        37.4583   -4.1233   -5.2017 H           1 OZZ       0.1185
     50 H19        36.5188   -2.0309   -5.4671 H           1 OZZ       0.0387
@<TRIPOS>BOND
     1     1     2   1
     2     1     5   1
     3     1     8   1
     4     2     3   1
     5     2     9   1
     6     3     4   1
     7     3     7   1
     8     4     5   1
     9     5     6   1
    10     6    10   2
    11     7    26   1
    12     7    29   1
    13    10    11   1
    14    11    12   1
    15    12    13  am
    16    13    14   1
    17    13    23   2
    18    14    15  ar
    19    14    19  ar
    20    15    16  ar
    21    15    21   1
    22    16    17  ar
    23    16    22   1
    24    17    18  ar
    25    18    19  ar
    26    18    20   1
    27    20    24   2
    28    20    25   2
    29    26    27   2
    30    27    28   1
    31    28    30   1
    32    28    31   2
    33    29    30   2
    34     1    32   1
    35     2    33   1
    36     3    34   1
    37     5    35   1
    38     6    36   1
    39     8    37   1
    40     9    38   1
    41    10    39   1
    42    11    40   1
    43    11    41   1
    44    12    42   1
    45    17    43   1
    46    19    44   1
    47    21    45   1
    48    22    46   1
    49    26    47   1
    50    27    48   1
    51    29    49   1
    52    30    50   1
@<TRIPOS>SUBSTRUCTURE
     1  OZZ      1

