@<TRIPOS>MOLECULE
3ozt_ligand_045
    50    52
SMALL
GAST_HUCK
****
This file was generated by PARSER (from files_GN.cpp)

@<TRIPOS>ATOM
      1 C1         41.6249  -10.7254   -3.8536 C.3         1 OZZ       0.1189
      2 C2         41.6853  -11.8402   -2.7988 C.3         1 OZZ       0.1403
      3 C3         41.4872  -11.0573   -1.4728 C.3         1 OZZ       0.2027
      4 O4         40.5958   -9.9694   -1.8148 O.3         1 OZZ      -0.3296
      5 C5         40.6123   -9.7277   -3.2333 C.3         1 OZZ       0.1082
      6 C6         39.2467   -9.8854   -3.7416 C.2         1 OZZ      -0.0658
      7 N7         41.0624  -11.8782   -0.3826 N.pl3       1 OZZ      -0.2105
      8 O8         42.9011  -10.1025   -4.0362 O.3         1 OZZ      -0.3846
      9 O9         42.8984  -12.5964   -2.8698 O.3         1 OZZ      -0.3834
     10 C10        38.5743   -8.9164   -4.3937 C.2         1 OZZ      -0.0744
     11 C11        37.2280   -9.1085   -4.9157 C.3         1 OZZ       0.0473
     12 N12        36.8606   -8.1125   -5.8831 N.am        1 OZZ      -0.2765
     13 C13        36.1948   -6.9790   -5.6583 C.2         1 OZZ       0.2411
     14 C14        35.9757   -6.0833   -6.6957 C.ar        1 OZZ       0.2482
     15 C15        35.2172   -6.4356   -7.8397 C.ar        1 OZZ       0.3921
     16 C16        34.9929   -5.4924   -8.8625 C.ar        1 OZZ       0.3797
     17 C17        35.5369   -4.2032   -8.7592 C.ar        1 OZZ       0.1691
     18 C18        36.3079   -3.8147   -7.6390 C.ar        1 OZZ       0.2168
     19 C19        36.5076   -4.7714   -6.6165 C.ar        1 OZZ       0.1162
     20 N20        36.8320   -2.5570   -7.5555 N.2         1 OZZ      -0.1404
     21 O21        34.5810   -7.6277   -7.9116 O.3         1 OZZ      -0.1763
     22 O22        34.2213   -5.8194   -9.9318 O.3         1 OZZ      -0.1825
     23 O23        35.7967   -6.7054   -4.5249 O.2         1 OZZ      -0.3823
     24 O24        36.6555   -1.6589   -8.4838 O.2         1 OZZ      -0.4541
     25 O25        37.4992   -2.1872   -6.6239 O.2         1 OZZ      -0.4541
     26 C26        39.9064  -11.6501    0.2617 C.2         1 OZZ       0.0592
     27 C27        39.4968  -12.4400    1.2752 C.2         1 OZZ      -0.0116
     28 C28        40.2854  -13.4905    1.6598 C.2         1 OZZ       0.0683
     29 C29        41.8504  -12.8881    0.0293 C.2         1 OZZ       0.0592
     30 C30        41.4807  -13.7090    1.0339 C.2         1 OZZ      -0.0116
     31 O31        39.9251  -14.2183    2.5751 O.2         1 OZZ      -0.4519
     32 H1         41.3011  -11.1179   -4.8197 H           1 OZZ       0.0667
     33 H2         40.8406  -12.5253   -2.9487 H           1 OZZ       0.0678
     34 H3         42.4386  -10.5854   -1.1978 H           1 OZZ       0.0999
     35 H4         40.9625   -8.6962   -3.3881 H           1 OZZ       0.0749
     36 H5         38.8115  -10.7779   -3.6249 H           1 OZZ       0.0477
     37 H6         43.1305   -9.7057   -3.1681 H           1 OZZ       0.2102
     38 H7         43.6176  -11.9489   -2.7057 H           1 OZZ       0.2101
     39 H8         39.0170   -8.0336   -4.5341 H           1 OZZ       0.0470
     40 H9         36.5123   -9.1314   -4.0898 H           1 OZZ       0.0643
     41 H10        37.1767  -10.0756   -5.4270 H           1 OZZ       0.0643
     42 H11        37.2096   -8.2367   -6.7850 H           1 OZZ       0.1867
     43 H12        35.3512   -3.5356   -9.5136 H           1 OZZ       0.1086
     44 H13        37.0595   -4.5189   -5.7958 H           1 OZZ       0.1563
     45 H14        35.0226   -8.1189   -8.6432 H           1 OZZ       0.3540
     46 H15        33.5618   -5.0952  -10.0179 H           1 OZZ       0.3497
     47 H16        39.3152  -10.8983    0.0077 H           1 OZZ       0.1185
     48 H17        38.6364  -12.2488    1.7420 H           1 OZZ       0.0387
     49 H18        42.7391  -13.0542   -0.3909 H           1 OZZ       0.1185
     50 H19        42.0723  -14.4523    1.3252 H           1 OZZ       0.0387
@<TRIPOS>BOND
     1     1     2   1
     2     1     5   1
     3     1     8   1
     4     2     3   1
     5     2     9   1
     6     3     4   1
     7     3     7   1
     8     4     5   1
     9     5     6   1
    10     6    10   2
    11     7    26   1
    12     7    29   1
    13    10    11   1
    14    11    12   1
    15    12    13  am
    16    13    14   1
    17    13    23   2
    18    14    15  ar
    19    14    19  ar
    20    15    16  ar
    21    15    21   1
    22    16    17  ar
    23    16    22   1
    24    17    18  ar
    25    18    19  ar
    26    18    20   1
    27    20    24   2
    28    20    25   2
    29    26    27   2
    30    27    28   1
    31    28    30   1
    32    28    31   2
    33    29    30   2
    34     1    32   1
    35     2    33   1
    36     3    34   1
    37     5    35   1
    38     6    36   1
    39     8    37   1
    40     9    38   1
    41    10    39   1
    42    11    40   1
    43    11    41   1
    44    12    42   1
    45    17    43   1
    46    19    44   1
    47    21    45   1
    48    22    46   1
    49    26    47   1
    50    27    48   1
    51    29    49   1
    52    30    50   1
@<TRIPOS>SUBSTRUCTURE
     1  OZZ      1

