@<TRIPOS>MOLECULE
3ozt_ligand_029
    50    52
SMALL
GAST_HUCK
****
This file was generated by PARSER (from files_GN.cpp)

@<TRIPOS>ATOM
      1 C1         41.4274   -1.1418   -8.7303 C.3         1 OZZ       0.1189
      2 C2         42.0718   -2.0698   -9.7689 C.3         1 OZZ       0.1403
      3 C3         42.3352   -3.3622   -8.9485 C.3         1 OZZ       0.2027
      4 O4         41.3049   -3.4287   -7.9542 O.3         1 OZZ      -0.3296
      5 C5         40.7189   -2.1285   -7.7710 C.3         1 OZZ       0.1082
      6 C6         39.2966   -2.2989   -8.0342 C.2         1 OZZ      -0.0658
      7 N7         42.3757   -4.5745   -9.7026 N.pl3       1 OZZ      -0.2105
      8 O8         42.4051   -0.3643   -8.0319 O.3         1 OZZ      -0.3846
      9 O9         43.2532   -1.5493  -10.3825 O.3         1 OZZ      -0.3834
     10 C10        38.3259   -1.7549   -7.2734 C.2         1 OZZ      -0.0744
     11 C11        36.9365   -2.1774   -7.3765 C.3         1 OZZ       0.0473
     12 N12        36.7947   -3.5945   -7.1846 N.am        1 OZZ      -0.2765
     13 C13        37.1514   -4.2772   -6.0899 C.2         1 OZZ       0.2411
     14 C14        36.9535   -5.6619   -5.9875 C.ar        1 OZZ       0.2482
     15 C15        35.9581   -6.3483   -6.7327 C.ar        1 OZZ       0.3921
     16 C16        35.7509   -7.7275   -6.5496 C.ar        1 OZZ       0.3797
     17 C17        36.5331   -8.4439   -5.6288 C.ar        1 OZZ       0.1691
     18 C18        37.5443   -7.8078   -4.8694 C.ar        1 OZZ       0.2168
     19 C19        37.7289   -6.4149   -5.0631 C.ar        1 OZZ       0.1162
     20 N20        38.3176   -8.5063   -3.9860 N.2         1 OZZ      -0.1404
     21 O21        35.1361   -5.6864   -7.5860 O.3         1 OZZ      -0.1763
     22 O22        34.7362   -8.3272   -7.2172 O.3         1 OZZ      -0.1825
     23 O23        37.6886   -3.6935   -5.1482 O.2         1 OZZ      -0.3823
     24 O24        38.1713   -9.7926   -3.7956 O.2         1 OZZ      -0.4541
     25 O25        39.1859   -7.9913   -3.3296 O.2         1 OZZ      -0.4541
     26 C26        41.4094   -4.8429  -10.5982 C.2         1 OZZ       0.0592
     27 C27        41.3957   -5.9980  -11.2989 C.2         1 OZZ      -0.0116
     28 C28        42.3709   -6.9263  -11.0657 C.2         1 OZZ       0.0683
     29 C29        43.3394   -5.4852   -9.4903 C.2         1 OZZ       0.0592
     30 C30        43.3557   -6.6609  -10.1552 C.2         1 OZZ      -0.0116
     31 O31        42.3473   -8.0008  -11.6522 O.2         1 OZZ      -0.4519
     32 H1         40.7218   -0.4452   -9.1982 H           1 OZZ       0.0667
     33 H2         41.3437   -2.2475  -10.5649 H           1 OZZ       0.0678
     34 H3         43.2633   -3.1976   -8.3826 H           1 OZZ       0.0999
     35 H4         40.8986   -1.8327   -6.7356 H           1 OZZ       0.0749
     36 H5         39.0370   -2.9151   -8.7770 H           1 OZZ       0.0477
     37 H6         42.6818    0.3295   -8.6695 H           1 OZZ       0.2102
     38 H7         43.8866   -1.3751   -9.6552 H           1 OZZ       0.2101
     39 H8         38.5682   -1.1101   -6.5519 H           1 OZZ       0.0470
     40 H9         36.5473   -1.9115   -8.3634 H           1 OZZ       0.0643
     41 H10        36.3304   -1.6551   -6.6270 H           1 OZZ       0.0643
     42 H11        36.3935   -4.0977   -7.9182 H           1 OZZ       0.1867
     43 H12        36.3569   -9.4420   -5.5036 H           1 OZZ       0.1086
     44 H13        38.4641   -5.9357   -4.5299 H           1 OZZ       0.1563
     45 H14        35.3480   -6.0386   -8.4773 H           1 OZZ       0.3540
     46 H15        35.0604   -9.2205   -7.4496 H           1 OZZ       0.3497
     47 H16        40.6637   -4.1940  -10.7636 H           1 OZZ       0.1185
     48 H17        40.6847   -6.1680  -11.9758 H           1 OZZ       0.0387
     49 H18        44.0703   -5.3165   -8.8275 H           1 OZZ       0.1185
     50 H19        44.0834   -7.3212   -9.9911 H           1 OZZ       0.0387
@<TRIPOS>BOND
     1     1     2   1
     2     1     5   1
     3     1     8   1
     4     2     3   1
     5     2     9   1
     6     3     4   1
     7     3     7   1
     8     4     5   1
     9     5     6   1
    10     6    10   2
    11     7    26   1
    12     7    29   1
    13    10    11   1
    14    11    12   1
    15    12    13  am
    16    13    14   1
    17    13    23   2
    18    14    15  ar
    19    14    19  ar
    20    15    16  ar
    21    15    21   1
    22    16    17  ar
    23    16    22   1
    24    17    18  ar
    25    18    19  ar
    26    18    20   1
    27    20    24   2
    28    20    25   2
    29    26    27   2
    30    27    28   1
    31    28    30   1
    32    28    31   2
    33    29    30   2
    34     1    32   1
    35     2    33   1
    36     3    34   1
    37     5    35   1
    38     6    36   1
    39     8    37   1
    40     9    38   1
    41    10    39   1
    42    11    40   1
    43    11    41   1
    44    12    42   1
    45    17    43   1
    46    19    44   1
    47    21    45   1
    48    22    46   1
    49    26    47   1
    50    27    48   1
    51    29    49   1
    52    30    50   1
@<TRIPOS>SUBSTRUCTURE
     1  OZZ      1

