@<TRIPOS>MOLECULE
3ozt_ligand_041
    50    52
SMALL
GAST_HUCK
****
This file was generated by PARSER (from files_GN.cpp)

@<TRIPOS>ATOM
      1 C1         37.7096   -1.7758   -6.3033 C.3         1 OZZ       0.1189
      2 C2         38.9409   -0.8639   -6.1324 C.3         1 OZZ       0.1403
      3 C3         40.1300   -1.8785   -6.1468 C.3         1 OZZ       0.2027
      4 O4         39.5529   -3.2010   -6.2312 O.3         1 OZZ      -0.3296
      5 C5         38.2199   -3.1030   -5.7059 C.3         1 OZZ       0.1082
      6 C6         37.4289   -4.2954   -5.9831 C.2         1 OZZ      -0.0658
      7 N7         41.0913   -1.6966   -7.1906 N.pl3       1 OZZ      -0.2105
      8 O8         36.5357   -1.2958   -5.6556 O.3         1 OZZ      -0.3846
      9 O9         38.8861   -0.1023   -4.9198 O.3         1 OZZ      -0.3834
     10 C10        37.0317   -4.6789   -7.2084 C.2         1 OZZ      -0.0744
     11 C11        36.2315   -5.8816   -7.4146 C.3         1 OZZ       0.0473
     12 N12        35.6398   -5.9075   -8.7204 N.am        1 OZZ      -0.2765
     13 C13        34.6184   -6.6733   -9.1022 C.2         1 OZZ       0.2411
     14 C14        34.0122   -6.5726  -10.3715 C.ar        1 OZZ       0.2482
     15 C15        34.1509   -5.4320  -11.2137 C.ar        1 OZZ       0.3921
     16 C16        33.4636   -5.3493  -12.4424 C.ar        1 OZZ       0.3797
     17 C17        32.6254   -6.3970  -12.8480 C.ar        1 OZZ       0.1691
     18 C18        32.4612   -7.5569  -12.0606 C.ar        1 OZZ       0.2168
     19 C19        33.1718   -7.6222  -10.8371 C.ar        1 OZZ       0.1162
     20 N20        31.6241   -8.5596  -12.4570 N.2         1 OZZ      -0.1404
     21 O21        34.8727   -4.3440  -10.8541 O.3         1 OZZ      -0.1763
     22 O22        33.5790   -4.2681  -13.2563 O.3         1 OZZ      -0.1825
     23 O23        34.1473   -7.4418   -8.2686 O.2         1 OZZ      -0.3823
     24 O24        30.9237   -8.4946  -13.5570 O.2         1 OZZ      -0.4541
     25 O25        31.4667   -9.5713  -11.8234 O.2         1 OZZ      -0.4541
     26 C26        42.4070   -1.7838   -6.9248 C.2         1 OZZ       0.0592
     27 C27        43.3293   -1.6479   -7.8998 C.2         1 OZZ      -0.0116
     28 C28        42.9154   -1.3983   -9.1773 C.2         1 OZZ       0.0683
     29 C29        40.6869   -1.4628   -8.4504 C.2         1 OZZ       0.0592
     30 C30        41.5780   -1.3031   -9.4536 C.2         1 OZZ      -0.0116
     31 O31        43.7385   -1.2585  -10.0692 O.2         1 OZZ      -0.4519
     32 H1         37.5001   -1.8869   -7.3757 H           1 OZZ       0.0667
     33 H2         38.9949   -0.1517   -6.9590 H           1 OZZ       0.0678
     34 H3         40.5982   -1.8380   -5.1561 H           1 OZZ       0.0999
     35 H4         38.2935   -3.0024   -4.6134 H           1 OZZ       0.0749
     36 H5         37.1645   -4.8536   -5.2007 H           1 OZZ       0.0477
     37 H6         35.7968   -1.5612   -6.2452 H           1 OZZ       0.2102
     38 H7         38.7711   -0.7560   -4.1964 H           1 OZZ       0.2101
     39 H8         37.2918   -4.1112   -7.9901 H           1 OZZ       0.0470
     40 H9         35.4301   -5.9145   -6.6580 H           1 OZZ       0.0643
     41 H10        36.8733   -6.7633   -7.2846 H           1 OZZ       0.0643
     42 H11        36.0130   -5.3046   -9.3760 H           1 OZZ       0.1867
     43 H12        32.1146   -6.2995  -13.7307 H           1 OZZ       0.1086
     44 H13        33.0460   -8.4546  -10.2579 H           1 OZZ       0.1563
     45 H14        34.2590   -3.8372  -10.2840 H           1 OZZ       0.3540
     46 H15        33.6009   -3.4801  -12.6684 H           1 OZZ       0.3497
     47 H16        42.7341   -1.9491   -5.9965 H           1 OZZ       0.1185
     48 H17        44.2980   -1.7152   -7.6851 H           1 OZZ       0.0387
     49 H18        39.7191   -1.3947   -8.6728 H           1 OZZ       0.1185
     50 H19        41.2624   -1.1023  -10.3752 H           1 OZZ       0.0387
@<TRIPOS>BOND
     1     1     2   1
     2     1     5   1
     3     1     8   1
     4     2     3   1
     5     2     9   1
     6     3     4   1
     7     3     7   1
     8     4     5   1
     9     5     6   1
    10     6    10   2
    11     7    26   1
    12     7    29   1
    13    10    11   1
    14    11    12   1
    15    12    13  am
    16    13    14   1
    17    13    23   2
    18    14    15  ar
    19    14    19  ar
    20    15    16  ar
    21    15    21   1
    22    16    17  ar
    23    16    22   1
    24    17    18  ar
    25    18    19  ar
    26    18    20   1
    27    20    24   2
    28    20    25   2
    29    26    27   2
    30    27    28   1
    31    28    30   1
    32    28    31   2
    33    29    30   2
    34     1    32   1
    35     2    33   1
    36     3    34   1
    37     5    35   1
    38     6    36   1
    39     8    37   1
    40     9    38   1
    41    10    39   1
    42    11    40   1
    43    11    41   1
    44    12    42   1
    45    17    43   1
    46    19    44   1
    47    21    45   1
    48    22    46   1
    49    26    47   1
    50    27    48   1
    51    29    49   1
    52    30    50   1
@<TRIPOS>SUBSTRUCTURE
     1  OZZ      1

