@<TRIPOS>MOLECULE
3ozt_ligand_043
    50    52
SMALL
GAST_HUCK
****
This file was generated by PARSER (from files_GN.cpp)

@<TRIPOS>ATOM
      1 C1         40.2675   -1.7180  -12.5653 C.3         1 OZZ       0.1189
      2 C2         40.5235   -0.2144  -12.7018 C.3         1 OZZ       0.1403
      3 C3         41.2277   -0.1306  -14.0686 C.3         1 OZZ       0.2027
      4 O4         40.6898   -1.2055  -14.8654 O.3         1 OZZ      -0.3296
      5 C5         39.9462   -2.1182  -14.0283 C.3         1 OZZ       0.1082
      6 C6         38.5280   -2.0502  -14.3750 C.2         1 OZZ      -0.0658
      7 N7         41.1062    1.1538  -14.6717 N.pl3       1 OZZ      -0.2105
      8 O8         41.4202   -2.4153  -12.0788 O.3         1 OZZ      -0.3846
      9 O9         41.3060    0.3196  -11.6373 O.3         1 OZZ      -0.3834
     10 C10        37.5843   -2.8335  -13.8219 C.2         1 OZZ      -0.0744
     11 C11        36.1840   -2.7710  -14.2098 C.3         1 OZZ       0.0473
     12 N12        35.6136   -1.4658  -14.0524 N.am        1 OZZ      -0.2765
     13 C13        35.1618   -0.9057  -12.9334 C.2         1 OZZ       0.2411
     14 C14        34.5226    0.3418  -12.9522 C.ar        1 OZZ       0.2482
     15 C15        33.7013    0.7459  -14.0387 C.ar        1 OZZ       0.3921
     16 C16        33.0910    2.0160  -14.0436 C.ar        1 OZZ       0.3797
     17 C17        33.2449    2.8789  -12.9450 C.ar        1 OZZ       0.1691
     18 C18        34.0082    2.5009  -11.8165 C.ar        1 OZZ       0.2168
     19 C19        34.6493    1.2350  -11.8539 C.ar        1 OZZ       0.1162
     20 N20        34.1195    3.3382  -10.7434 N.2         1 OZZ      -0.1404
     21 O21        33.4117   -0.1080  -15.0589 O.3         1 OZZ      -0.1763
     22 O22        32.3306    2.4036  -15.1014 O.3         1 OZZ      -0.1825
     23 O23        35.2821   -1.5046  -11.8717 O.2         1 OZZ      -0.3823
     24 O24        33.6489    4.5564  -10.7531 O.2         1 OZZ      -0.4541
     25 O25        34.6906    3.0245   -9.7332 O.2         1 OZZ      -0.4541
     26 C26        42.1077    2.0400  -14.5580 C.2         1 OZZ       0.0592
     27 C27        42.0676    3.2235  -15.2030 C.2         1 OZZ      -0.0116
     28 C28        40.9777    3.5258  -15.9717 C.2         1 OZZ       0.0683
     29 C29        39.9976    1.4903  -15.3520 C.2         1 OZZ       0.0592
     30 C30        39.9242    2.6551  -16.0300 C.2         1 OZZ      -0.0116
     31 O31        40.9292    4.5912  -16.5714 O.2         1 OZZ      -0.4519
     32 H1         39.4419   -1.9004  -11.8727 H           1 OZZ       0.0667
     33 H2         39.5650    0.3127  -12.7361 H           1 OZZ       0.0678
     34 H3         42.2840   -0.3957  -13.9198 H           1 OZZ       0.0999
     35 H4         40.2995   -3.1340  -14.2316 H           1 OZZ       0.0749
     36 H5         38.2483   -1.4049  -15.0792 H           1 OZZ       0.0477
     37 H6         42.1452   -2.2222  -12.7124 H           1 OZZ       0.2102
     38 H7         41.4248    1.2676  -11.8599 H           1 OZZ       0.2101
     39 H8         37.8528   -3.5099  -13.1428 H           1 OZZ       0.0470
     40 H9         35.5870   -3.5055  -13.6595 H           1 OZZ       0.0643
     41 H10        36.1147   -3.0377  -15.2674 H           1 OZZ       0.0643
     42 H11        35.5467   -0.9416  -14.8647 H           1 OZZ       0.1867
     43 H12        32.7731    3.7861  -12.9743 H           1 OZZ       0.1086
     44 H13        35.2358    0.9633  -11.0614 H           1 OZZ       0.1563
     45 H14        32.5155    0.1331  -15.3676 H           1 OZZ       0.3540
     46 H15        31.5222    2.8033  -14.7098 H           1 OZZ       0.3497
     47 H16        42.9020    1.8483  -13.9872 H           1 OZZ       0.1185
     48 H17        42.8176    3.8698  -15.1044 H           1 OZZ       0.0387
     49 H18        39.2112    0.8798  -15.3858 H           1 OZZ       0.1185
     50 H19        39.1121    2.8724  -16.5607 H           1 OZZ       0.0387
@<TRIPOS>BOND
     1     1     2   1
     2     1     5   1
     3     1     8   1
     4     2     3   1
     5     2     9   1
     6     3     4   1
     7     3     7   1
     8     4     5   1
     9     5     6   1
    10     6    10   2
    11     7    26   1
    12     7    29   1
    13    10    11   1
    14    11    12   1
    15    12    13  am
    16    13    14   1
    17    13    23   2
    18    14    15  ar
    19    14    19  ar
    20    15    16  ar
    21    15    21   1
    22    16    17  ar
    23    16    22   1
    24    17    18  ar
    25    18    19  ar
    26    18    20   1
    27    20    24   2
    28    20    25   2
    29    26    27   2
    30    27    28   1
    31    28    30   1
    32    28    31   2
    33    29    30   2
    34     1    32   1
    35     2    33   1
    36     3    34   1
    37     5    35   1
    38     6    36   1
    39     8    37   1
    40     9    38   1
    41    10    39   1
    42    11    40   1
    43    11    41   1
    44    12    42   1
    45    17    43   1
    46    19    44   1
    47    21    45   1
    48    22    46   1
    49    26    47   1
    50    27    48   1
    51    29    49   1
    52    30    50   1
@<TRIPOS>SUBSTRUCTURE
     1  OZZ      1

