@<TRIPOS>MOLECULE
3ozt_ligand_080
    50    52
SMALL
GAST_HUCK
****
This file was generated by PARSER (from files_GN.cpp)

@<TRIPOS>ATOM
      1 C1         38.1205   -3.0515   -5.3190 C.3         1 OZZ       0.1189
      2 C2         39.4042   -2.2859   -4.9622 C.3         1 OZZ       0.1403
      3 C3         39.9200   -1.7780   -6.3459 C.3         1 OZZ       0.2027
      4 O4         39.2723   -2.5931   -7.3454 O.3         1 OZZ      -0.3296
      5 C5         38.4752   -3.6075   -6.7092 C.3         1 OZZ       0.1082
      6 C6         37.3281   -3.9912   -7.5130 C.2         1 OZZ      -0.0658
      7 N7         39.7443   -0.4099   -6.7361 N.pl3       1 OZZ      -0.2105
      8 O8         37.8011   -4.0703   -4.3697 O.3         1 OZZ      -0.3846
      9 O9         40.3566   -3.1708   -4.3525 O.3         1 OZZ      -0.3834
     10 C10        36.5932   -3.1344   -8.2443 C.2         1 OZZ      -0.0744
     11 C11        35.5799   -3.5961   -9.1836 C.3         1 OZZ       0.0473
     12 N12        35.0785   -2.6051  -10.0873 N.am        1 OZZ      -0.2765
     13 C13        35.7813   -1.9259  -10.9876 C.2         1 OZZ       0.2411
     14 C14        35.1580   -0.9649  -11.7613 C.ar        1 OZZ       0.2482
     15 C15        34.5334   -1.2853  -12.9898 C.ar        1 OZZ       0.3921
     16 C16        33.8925   -0.2761  -13.7368 C.ar        1 OZZ       0.3797
     17 C17        33.8905    1.0538  -13.2700 C.ar        1 OZZ       0.1691
     18 C18        34.5017    1.4036  -12.0429 C.ar        1 OZZ       0.2168
     19 C19        35.1555    0.3752  -11.3172 C.ar        1 OZZ       0.1162
     20 N20        34.4381    2.6783  -11.5594 N.2         1 OZZ      -0.1404
     21 O21        34.5616   -2.5570  -13.4663 O.3         1 OZZ      -0.1763
     22 O22        33.2379   -0.6018  -14.8834 O.3         1 OZZ      -0.1825
     23 O23        36.9957   -2.0427  -11.0903 O.2         1 OZZ      -0.3823
     24 O24        33.8933    3.6574  -12.2339 O.2         1 OZZ      -0.4541
     25 O25        34.8431    2.9756  -10.4677 O.2         1 OZZ      -0.4541
     26 C26        38.8664    0.4113   -6.1431 C.2         1 OZZ       0.0592
     27 C27        38.9147    1.7513   -6.3414 C.2         1 OZZ      -0.0116
     28 C28        39.7996    2.2470   -7.2581 C.2         1 OZZ       0.0683
     29 C29        40.4912    0.0697   -7.7407 C.2         1 OZZ       0.0592
     30 C30        40.5529    1.3906   -8.0050 C.2         1 OZZ      -0.0116
     31 O31        39.8147    3.4408   -7.5022 O.2         1 OZZ      -0.4519
     32 H1         37.2927   -2.3421   -5.3770 H           1 OZZ       0.0667
     33 H2         39.2180   -1.4736   -4.2556 H           1 OZZ       0.0678
     34 H3         40.9912   -2.0063   -6.3759 H           1 OZZ       0.0999
     35 H4         39.1162   -4.4874   -6.5820 H           1 OZZ       0.0749
     36 H5         37.1252   -4.9595   -7.5782 H           1 OZZ       0.0477
     37 H6         37.0222   -4.5327   -4.7438 H           1 OZZ       0.2102
     38 H7         39.9942   -3.3908   -3.4636 H           1 OZZ       0.2101
     39 H8         36.7847   -2.1605   -8.1925 H           1 OZZ       0.0470
     40 H9         34.7323   -3.9787   -8.6080 H           1 OZZ       0.0643
     41 H10        35.9724   -4.4204   -9.7822 H           1 OZZ       0.0643
     42 H11        34.1191   -2.4700  -10.0756 H           1 OZZ       0.1867
     43 H12        33.4107    1.7651  -13.8274 H           1 OZZ       0.1086
     44 H13        35.6396    0.6042  -10.4456 H           1 OZZ       0.1563
     45 H14        34.6652   -2.4568  -14.4396 H           1 OZZ       0.3540
     46 H15        32.6240    0.1350  -15.0886 H           1 OZZ       0.3497
     47 H16        38.1414    0.0510   -5.5679 H           1 OZZ       0.1185
     48 H17        38.2677    2.3457   -5.8763 H           1 OZZ       0.0387
     49 H18        41.0251   -0.5377   -8.3106 H           1 OZZ       0.1185
     50 H19        41.1113    1.7285   -8.7512 H           1 OZZ       0.0387
@<TRIPOS>BOND
     1     1     2   1
     2     1     5   1
     3     1     8   1
     4     2     3   1
     5     2     9   1
     6     3     4   1
     7     3     7   1
     8     4     5   1
     9     5     6   1
    10     6    10   2
    11     7    26   1
    12     7    29   1
    13    10    11   1
    14    11    12   1
    15    12    13  am
    16    13    14   1
    17    13    23   2
    18    14    15  ar
    19    14    19  ar
    20    15    16  ar
    21    15    21   1
    22    16    17  ar
    23    16    22   1
    24    17    18  ar
    25    18    19  ar
    26    18    20   1
    27    20    24   2
    28    20    25   2
    29    26    27   2
    30    27    28   1
    31    28    30   1
    32    28    31   2
    33    29    30   2
    34     1    32   1
    35     2    33   1
    36     3    34   1
    37     5    35   1
    38     6    36   1
    39     8    37   1
    40     9    38   1
    41    10    39   1
    42    11    40   1
    43    11    41   1
    44    12    42   1
    45    17    43   1
    46    19    44   1
    47    21    45   1
    48    22    46   1
    49    26    47   1
    50    27    48   1
    51    29    49   1
    52    30    50   1
@<TRIPOS>SUBSTRUCTURE
     1  OZZ      1

