@<TRIPOS>MOLECULE
3ozt_ligand_014
    50    52
SMALL
GAST_HUCK
****
This file was generated by PARSER (from files_GN.cpp)

@<TRIPOS>ATOM
      1 C1         34.2193    1.4861  -13.9613 C.3         1 OZZ       0.1189
      2 C2         33.2704    2.6618  -13.6617 C.3         1 OZZ       0.1403
      3 C3         33.5248    2.9360  -12.1454 C.3         1 OZZ       0.2027
      4 O4         34.4271    1.9179  -11.6766 O.3         1 OZZ      -0.3296
      5 C5         34.3354    0.8071  -12.5853 C.3         1 OZZ       0.1082
      6 C6         35.5119   -0.0358  -12.4213 C.2         1 OZZ      -0.0658
      7 N7         34.0432    4.2222  -11.7964 N.pl3       1 OZZ      -0.2105
      8 O8         33.7743    0.6256  -15.0115 O.3         1 OZZ      -0.3846
      9 O9         31.9083    2.3050  -13.9103 O.3         1 OZZ      -0.3834
     10 C10        35.4623   -1.3577  -12.1801 C.2         1 OZZ      -0.0744
     11 C11        36.6308   -2.1621  -11.8548 C.3         1 OZZ       0.0473
     12 N12        36.3800   -3.1771  -10.8688 N.am        1 OZZ      -0.2765
     13 C13        35.9906   -2.9749   -9.6140 C.2         1 OZZ       0.2411
     14 C14        35.9309   -4.0241   -8.7047 C.ar        1 OZZ       0.2482
     15 C15        35.2476   -5.2337   -8.9910 C.ar        1 OZZ       0.3921
     16 C16        35.2073   -6.2721   -8.0373 C.ar        1 OZZ       0.3797
     17 C17        35.8818   -6.1267   -6.8126 C.ar        1 OZZ       0.1691
     18 C18        36.6004   -4.9471   -6.5016 C.ar        1 OZZ       0.2168
     19 C19        36.5845   -3.8975   -7.4541 C.ar        1 OZZ       0.1162
     20 N20        37.2756   -4.8288   -5.3197 N.2         1 OZZ      -0.1404
     21 O21        34.5826   -5.4112  -10.1600 O.3         1 OZZ      -0.1763
     22 O22        34.4852   -7.4026   -8.2328 O.3         1 OZZ      -0.1825
     23 O23        35.7951   -1.8373   -9.2010 O.2         1 OZZ      -0.3823
     24 O24        37.3156   -5.7965   -4.4429 O.2         1 OZZ      -0.4541
     25 O25        37.8931   -3.8411   -5.0173 O.2         1 OZZ      -0.4541
     26 C26        33.5342    4.8886  -10.7450 C.2         1 OZZ       0.0592
     27 C27        33.9886    6.1153  -10.4035 C.2         1 OZZ      -0.0116
     28 C28        35.0051    6.6735  -11.1209 C.2         1 OZZ       0.0683
     29 C29        35.0752    4.7600  -12.4687 C.2         1 OZZ       0.0592
     30 C30        35.5312    5.9984  -12.1826 C.2         1 OZZ      -0.0116
     31 O31        35.4503    7.7697  -10.8015 O.2         1 OZZ      -0.4519
     32 H1         35.1984    1.8777  -14.2510 H           1 OZZ       0.0667
     33 H2         33.5050    3.5153  -14.3020 H           1 OZZ       0.0678
     34 H3         32.5801    2.7413  -11.6274 H           1 OZZ       0.0999
     35 H4         33.4171    0.2449  -12.3817 H           1 OZZ       0.0749
     36 H5         36.4042    0.4077  -12.4528 H           1 OZZ       0.0477
     37 H6         32.7915    0.6169  -14.9832 H           1 OZZ       0.2102
     38 H7         31.3840    3.1084  -13.6957 H           1 OZZ       0.2101
     39 H8         34.5831   -1.8203  -12.2060 H           1 OZZ       0.0470
     40 H9         37.4592   -1.5416  -11.4970 H           1 OZZ       0.0643
     41 H10        36.9635   -2.6571  -12.7695 H           1 OZZ       0.0643
     42 H11        36.5883   -4.0918  -11.1173 H           1 OZZ       0.1867
     43 H12        35.8368   -6.8975   -6.1395 H           1 OZZ       0.1086
     44 H13        37.0942   -3.0347   -7.2463 H           1 OZZ       0.1563
     45 H14        33.7470   -4.9116  -10.0483 H           1 OZZ       0.3540
     46 H15        34.7566   -7.7403   -9.1114 H           1 OZZ       0.3497
     47 H16        32.8212    4.4925  -10.1753 H           1 OZZ       0.1185
     48 H17        33.5889    6.5977   -9.6367 H           1 OZZ       0.0387
     49 H18        35.5138    4.2702  -13.2135 H           1 OZZ       0.1185
     50 H19        36.2747    6.3935  -12.7116 H           1 OZZ       0.0387
@<TRIPOS>BOND
     1     1     2   1
     2     1     5   1
     3     1     8   1
     4     2     3   1
     5     2     9   1
     6     3     4   1
     7     3     7   1
     8     4     5   1
     9     5     6   1
    10     6    10   2
    11     7    26   1
    12     7    29   1
    13    10    11   1
    14    11    12   1
    15    12    13  am
    16    13    14   1
    17    13    23   2
    18    14    15  ar
    19    14    19  ar
    20    15    16  ar
    21    15    21   1
    22    16    17  ar
    23    16    22   1
    24    17    18  ar
    25    18    19  ar
    26    18    20   1
    27    20    24   2
    28    20    25   2
    29    26    27   2
    30    27    28   1
    31    28    30   1
    32    28    31   2
    33    29    30   2
    34     1    32   1
    35     2    33   1
    36     3    34   1
    37     5    35   1
    38     6    36   1
    39     8    37   1
    40     9    38   1
    41    10    39   1
    42    11    40   1
    43    11    41   1
    44    12    42   1
    45    17    43   1
    46    19    44   1
    47    21    45   1
    48    22    46   1
    49    26    47   1
    50    27    48   1
    51    29    49   1
    52    30    50   1
@<TRIPOS>SUBSTRUCTURE
     1  OZZ      1

