@<TRIPOS>MOLECULE
3ozt_ligand_069
    50    52
SMALL
GAST_HUCK
****
This file was generated by PARSER (from files_GN.cpp)

@<TRIPOS>ATOM
      1 C1         39.1890   -3.0042  -13.2195 C.3         1 OZZ       0.1189
      2 C2         40.2173   -2.2945  -14.1331 C.3         1 OZZ       0.1403
      3 C3         39.4800   -0.9755  -14.5447 C.3         1 OZZ       0.2027
      4 O4         38.2465   -0.9669  -13.8112 O.3         1 OZZ      -0.3296
      5 C5         37.8671   -2.3270  -13.6139 C.3         1 OZZ       0.1082
      6 C6         36.8009   -2.3975  -12.6387 C.2         1 OZZ      -0.0658
      7 N7         40.0748    0.3111  -14.3821 N.pl3       1 OZZ      -0.2105
      8 O8         39.1535   -4.4272  -13.3781 O.3         1 OZZ      -0.3846
      9 O9         40.5896   -3.0358  -15.3093 O.3         1 OZZ      -0.3834
     10 C10        35.5881   -1.8798  -12.9030 C.2         1 OZZ      -0.0744
     11 C11        34.4711   -1.9449  -11.9762 C.3         1 OZZ       0.0473
     12 N12        34.1447   -3.2582  -11.5354 N.am        1 OZZ      -0.2765
     13 C13        33.8162   -4.3098  -12.2738 C.2         1 OZZ       0.2411
     14 C14        33.5260   -5.5679  -11.7185 C.ar        1 OZZ       0.2482
     15 C15        33.9751   -5.9745  -10.4288 C.ar        1 OZZ       0.3921
     16 C16        33.6511   -7.2397   -9.9090 C.ar        1 OZZ       0.3797
     17 C17        32.8836   -8.1398  -10.6649 C.ar        1 OZZ       0.1691
     18 C18        32.4215   -7.7955  -11.9574 C.ar        1 OZZ       0.2168
     19 C19        32.7585   -6.5121  -12.4570 C.ar        1 OZZ       0.1162
     20 N20        31.6509   -8.6613  -12.6790 N.2         1 OZZ      -0.1404
     21 O21        34.7384   -5.1780   -9.6325 O.3         1 OZZ      -0.1763
     22 O22        34.0355   -7.5981   -8.6511 O.3         1 OZZ      -0.1825
     23 O23        33.7841   -4.1698  -13.4957 O.2         1 OZZ      -0.3823
     24 O24        31.3373   -9.8523  -12.2422 O.2         1 OZZ      -0.4541
     25 O25        31.1901   -8.3832  -13.7543 O.2         1 OZZ      -0.4541
     26 C26        39.5661    1.3353  -15.0942 C.2         1 OZZ       0.0592
     27 C27        40.1090    2.5689  -15.0382 C.2         1 OZZ      -0.0116
     28 C28        41.1649    2.7937  -14.1931 C.2         1 OZZ       0.0683
     29 C29        40.9832    0.5802  -13.4288 C.2         1 OZZ       0.0592
     30 C30        41.5662    1.7986  -13.3408 C.2         1 OZZ      -0.0116
     31 O31        41.6851    3.9032  -14.1485 O.2         1 OZZ      -0.4519
     32 H1         39.4338   -2.7712  -12.1819 H           1 OZZ       0.0667
     33 H2         41.1363   -2.1340  -13.5757 H           1 OZZ       0.0678
     34 H3         39.1996   -1.0998  -15.6021 H           1 OZZ       0.0999
     35 H4         37.5019   -2.7559  -14.5587 H           1 OZZ       0.0749
     36 H5         36.9528   -2.8626  -11.7741 H           1 OZZ       0.0477
     37 H6         38.4721   -4.7300  -12.7230 H           1 OZZ       0.2102
     38 H7         40.6207   -3.9916  -15.0454 H           1 OZZ       0.2101
     39 H8         35.4363   -1.4169  -13.7832 H           1 OZZ       0.0470
     40 H9         33.5883   -1.4916  -12.4376 H           1 OZZ       0.0643
     41 H10        34.7279   -1.3511  -11.0931 H           1 OZZ       0.0643
     42 H11        34.0860   -3.3620  -10.5780 H           1 OZZ       0.1867
     43 H12        32.6514   -9.0425  -10.2569 H           1 OZZ       0.1086
     44 H13        32.4214   -6.2545  -13.3914 H           1 OZZ       0.1563
     45 H14        34.1022   -4.5300   -9.2745 H           1 OZZ       0.3540
     46 H15        35.0022   -7.4184   -8.6180 H           1 OZZ       0.3497
     47 H16        38.7521    1.2143  -15.6605 H           1 OZZ       0.1185
     48 H17        39.7176    3.3143  -15.5729 H           1 OZZ       0.0387
     49 H18        41.2110   -0.0909  -12.7260 H           1 OZZ       0.1185
     50 H19        42.2355    1.9855  -12.6284 H           1 OZZ       0.0387
@<TRIPOS>BOND
     1     1     2   1
     2     1     5   1
     3     1     8   1
     4     2     3   1
     5     2     9   1
     6     3     4   1
     7     3     7   1
     8     4     5   1
     9     5     6   1
    10     6    10   2
    11     7    26   1
    12     7    29   1
    13    10    11   1
    14    11    12   1
    15    12    13  am
    16    13    14   1
    17    13    23   2
    18    14    15  ar
    19    14    19  ar
    20    15    16  ar
    21    15    21   1
    22    16    17  ar
    23    16    22   1
    24    17    18  ar
    25    18    19  ar
    26    18    20   1
    27    20    24   2
    28    20    25   2
    29    26    27   2
    30    27    28   1
    31    28    30   1
    32    28    31   2
    33    29    30   2
    34     1    32   1
    35     2    33   1
    36     3    34   1
    37     5    35   1
    38     6    36   1
    39     8    37   1
    40     9    38   1
    41    10    39   1
    42    11    40   1
    43    11    41   1
    44    12    42   1
    45    17    43   1
    46    19    44   1
    47    21    45   1
    48    22    46   1
    49    26    47   1
    50    27    48   1
    51    29    49   1
    52    30    50   1
@<TRIPOS>SUBSTRUCTURE
     1  OZZ      1

