@<TRIPOS>MOLECULE
3ozt_ligand_044
    50    52
SMALL
GAST_HUCK
****
This file was generated by PARSER (from files_GN.cpp)

@<TRIPOS>ATOM
      1 C1         35.2227   -3.3874  -11.4484 C.3         1 OZZ       0.1189
      2 C2         34.8890   -4.8734  -11.2284 C.3         1 OZZ       0.1403
      3 C3         33.5815   -5.0514  -12.0339 C.3         1 OZZ       0.2027
      4 O4         33.8199   -4.2644  -13.2191 O.3         1 OZZ      -0.3296
      5 C5         34.6352   -3.1262  -12.8697 C.3         1 OZZ       0.1082
      6 C6         35.6541   -2.9216  -13.8883 C.2         1 OZZ      -0.0658
      7 N7         33.0895   -6.3482  -12.3928 N.pl3       1 OZZ      -0.2105
      8 O8         34.6051   -2.5258  -10.4800 O.3         1 OZZ      -0.3846
      9 O9         34.7265   -5.2493   -9.8578 O.3         1 OZZ      -0.3834
     10 C10        36.5571   -1.9284  -13.8269 C.2         1 OZZ      -0.0744
     11 C11        37.6507   -1.7981  -14.7776 C.3         1 OZZ       0.0473
     12 N12        38.3735   -0.5832  -14.5633 N.am        1 OZZ      -0.2765
     13 C13        39.6791   -0.4516  -14.3270 C.2         1 OZZ       0.2411
     14 C14        40.2573    0.8109  -14.1610 C.ar        1 OZZ       0.2482
     15 C15        41.2452    1.0672  -13.1716 C.ar        1 OZZ       0.3921
     16 C16        41.7888    2.3598  -13.0252 C.ar        1 OZZ       0.3797
     17 C17        41.3578    3.4053  -13.8593 C.ar        1 OZZ       0.1691
     18 C18        40.3855    3.1958  -14.8637 C.ar        1 OZZ       0.2168
     19 C19        39.8501    1.8903  -14.9916 C.ar        1 OZZ       0.1162
     20 N20        40.0050    4.2215  -15.6758 N.2         1 OZZ      -0.1404
     21 O21        41.6530    0.0845  -12.3237 O.3         1 OZZ      -0.1763
     22 O22        42.7294    2.6033  -12.0862 O.3         1 OZZ      -0.1825
     23 O23        40.3886   -1.4516  -14.2352 O.2         1 OZZ      -0.3823
     24 O24        40.4998    5.4210  -15.5714 O.2         1 OZZ      -0.4541
     25 O25        39.2110    4.0826  -16.5664 O.2         1 OZZ      -0.4541
     26 C26        33.8214   -7.4769  -12.2752 C.2         1 OZZ       0.0592
     27 C27        33.3157   -8.6797  -12.6107 C.2         1 OZZ      -0.0116
     28 C28        32.0273   -8.7683  -13.0511 C.2         1 OZZ       0.0683
     29 C29        31.8228   -6.4389  -12.8470 C.2         1 OZZ       0.0592
     30 C30        31.2761   -7.6286  -13.1723 C.2         1 OZZ      -0.0116
     31 O31        31.5593   -9.8544  -13.3721 O.2         1 OZZ      -0.4519
     32 H1         36.3117   -3.2419  -11.3855 H           1 OZZ       0.0667
     33 H2         35.7002   -5.4683  -11.6611 H           1 OZZ       0.0678
     34 H3         32.7898   -4.5511  -11.4547 H           1 OZZ       0.0999
     35 H4         33.9803   -2.2547  -12.8495 H           1 OZZ       0.0749
     36 H5         35.6944   -3.5507  -14.6582 H           1 OZZ       0.0477
     37 H6         34.9667   -2.8080   -9.6095 H           1 OZZ       0.2102
     38 H7         33.9192   -4.7718   -9.5662 H           1 OZZ       0.2101
     39 H8         36.5098   -1.2881  -13.0576 H           1 OZZ       0.0470
     40 H9         37.2410   -1.7690  -15.7836 H           1 OZZ       0.0643
     41 H10        38.2845   -2.6894  -14.7063 H           1 OZZ       0.0643
     42 H11        37.8473    0.2310  -14.5794 H           1 OZZ       0.1867
     43 H12        41.7820    4.3299  -13.7264 H           1 OZZ       0.1086
     44 H13        39.1574    1.7205  -15.7278 H           1 OZZ       0.1563
     45 H14        41.5537    0.4766  -11.4090 H           1 OZZ       0.3540
     46 H15        42.3288    3.2726  -11.4827 H           1 OZZ       0.3497
     47 H16        34.7563   -7.4697  -11.9572 H           1 OZZ       0.1185
     48 H17        33.8735   -9.4948  -12.5227 H           1 OZZ       0.0387
     49 H18        31.2551   -5.6284  -12.9485 H           1 OZZ       0.1185
     50 H19        30.3415   -7.6778  -13.5004 H           1 OZZ       0.0387
@<TRIPOS>BOND
     1     1     2   1
     2     1     5   1
     3     1     8   1
     4     2     3   1
     5     2     9   1
     6     3     4   1
     7     3     7   1
     8     4     5   1
     9     5     6   1
    10     6    10   2
    11     7    26   1
    12     7    29   1
    13    10    11   1
    14    11    12   1
    15    12    13  am
    16    13    14   1
    17    13    23   2
    18    14    15  ar
    19    14    19  ar
    20    15    16  ar
    21    15    21   1
    22    16    17  ar
    23    16    22   1
    24    17    18  ar
    25    18    19  ar
    26    18    20   1
    27    20    24   2
    28    20    25   2
    29    26    27   2
    30    27    28   1
    31    28    30   1
    32    28    31   2
    33    29    30   2
    34     1    32   1
    35     2    33   1
    36     3    34   1
    37     5    35   1
    38     6    36   1
    39     8    37   1
    40     9    38   1
    41    10    39   1
    42    11    40   1
    43    11    41   1
    44    12    42   1
    45    17    43   1
    46    19    44   1
    47    21    45   1
    48    22    46   1
    49    26    47   1
    50    27    48   1
    51    29    49   1
    52    30    50   1
@<TRIPOS>SUBSTRUCTURE
     1  OZZ      1

