@<TRIPOS>MOLECULE
3ozt_ligand_061
    50    52
SMALL
GAST_HUCK
****
This file was generated by PARSER (from files_GN.cpp)

@<TRIPOS>ATOM
      1 C1         36.4329   -2.0093  -12.9260 C.3         1 OZZ       0.1189
      2 C2         37.3560   -1.3608  -13.9721 C.3         1 OZZ       0.1403
      3 C3         38.6938   -1.1655  -13.2134 C.3         1 OZZ       0.2027
      4 O4         38.4108   -1.2540  -11.8108 O.3         1 OZZ      -0.3296
      5 C5         37.0096   -1.4758  -11.5927 C.3         1 OZZ       0.1082
      6 C6         36.8620   -2.3818  -10.4647 C.2         1 OZZ      -0.0658
      7 N7         39.7172   -2.0937  -13.5754 N.pl3       1 OZZ      -0.2105
      8 O8         35.0530   -1.6822  -13.1095 O.3         1 OZZ      -0.3846
      9 O9         36.8414   -0.1011  -14.4128 O.3         1 OZZ      -0.3834
     10 C10        35.6954   -2.6483   -9.8563 C.2         1 OZZ      -0.0744
     11 C11        35.5681   -3.6530   -8.8066 C.3         1 OZZ       0.0473
     12 N12        34.7343   -4.7480   -9.1960 N.am        1 OZZ      -0.2765
     13 C13        34.8860   -5.5114  -10.2725 C.2         1 OZZ       0.2411
     14 C14        34.0098   -6.5598  -10.5037 C.ar        1 OZZ       0.2482
     15 C15        33.6931   -7.5049   -9.4951 C.ar        1 OZZ       0.3921
     16 C16        32.7687   -8.5388   -9.7556 C.ar        1 OZZ       0.3797
     17 C17        32.1800   -8.6490  -11.0304 C.ar        1 OZZ       0.1691
     18 C18        32.4777   -7.7274  -12.0597 C.ar        1 OZZ       0.2168
     19 C19        33.3968   -6.6911  -11.7696 C.ar        1 OZZ       0.1162
     20 N20        31.8928   -7.8308  -13.2874 N.2         1 OZZ      -0.1404
     21 O21        34.2854   -7.4866   -8.2747 O.3         1 OZZ      -0.1763
     22 O22        32.4352   -9.4372   -8.7932 O.3         1 OZZ      -0.1825
     23 O23        35.7340   -5.2528  -11.1214 O.2         1 OZZ      -0.3823
     24 O24        31.0543   -8.7827  -13.5867 O.2         1 OZZ      -0.4541
     25 O25        32.1434   -7.0711  -14.1843 O.2         1 OZZ      -0.4541
     26 C26        39.5660   -3.4089  -13.3359 C.2         1 OZZ       0.0592
     27 C27        40.4838   -4.3088  -13.7429 C.2         1 OZZ      -0.0116
     28 C28        41.5992   -3.8698  -14.3980 C.2         1 OZZ       0.0683
     29 C29        40.8379   -1.6659  -14.1755 C.2         1 OZZ       0.0592
     30 C30        41.7800   -2.5305  -14.6050 C.2         1 OZZ      -0.0116
     31 O31        42.4444   -4.6683  -14.7733 O.2         1 OZZ      -0.4519
     32 H1         36.5328   -3.0979  -12.9876 H           1 OZZ       0.0667
     33 H2         37.4743   -2.0082  -14.8496 H           1 OZZ       0.0678
     34 H3         39.0229   -0.1299  -13.3698 H           1 OZZ       0.0999
     35 H4         36.5599   -0.5074  -11.3420 H           1 OZZ       0.0749
     36 H5         37.6801   -2.8491  -10.1374 H           1 OZZ       0.0477
     37 H6         34.8870   -1.7680  -14.0742 H           1 OZZ       0.2102
     38 H7         36.1869   -0.3319  -15.1051 H           1 OZZ       0.2101
     39 H8         34.8703   -2.1770  -10.1566 H           1 OZZ       0.0470
     40 H9         35.1278   -3.1776   -7.9320 H           1 OZZ       0.0643
     41 H10        36.5345   -4.0546   -8.4990 H           1 OZZ       0.0643
     42 H11        33.9747   -4.9523   -8.6242 H           1 OZZ       0.1867
     43 H12        31.5143   -9.4031  -11.1954 H           1 OZZ       0.1086
     44 H13        33.6082   -5.9970  -12.4937 H           1 OZZ       0.1563
     45 H14        35.2506   -7.4193   -8.4465 H           1 OZZ       0.3540
     46 H15        31.9810   -8.9294   -8.0880 H           1 OZZ       0.3497
     47 H16        38.7732   -3.7512  -12.8377 H           1 OZZ       0.1185
     48 H17        40.3578   -5.2776  -13.5531 H           1 OZZ       0.0387
     49 H18        41.0045   -0.6977  -14.3206 H           1 OZZ       0.1185
     50 H19        42.6005   -2.1903  -15.0569 H           1 OZZ       0.0387
@<TRIPOS>BOND
     1     1     2   1
     2     1     5   1
     3     1     8   1
     4     2     3   1
     5     2     9   1
     6     3     4   1
     7     3     7   1
     8     4     5   1
     9     5     6   1
    10     6    10   2
    11     7    26   1
    12     7    29   1
    13    10    11   1
    14    11    12   1
    15    12    13  am
    16    13    14   1
    17    13    23   2
    18    14    15  ar
    19    14    19  ar
    20    15    16  ar
    21    15    21   1
    22    16    17  ar
    23    16    22   1
    24    17    18  ar
    25    18    19  ar
    26    18    20   1
    27    20    24   2
    28    20    25   2
    29    26    27   2
    30    27    28   1
    31    28    30   1
    32    28    31   2
    33    29    30   2
    34     1    32   1
    35     2    33   1
    36     3    34   1
    37     5    35   1
    38     6    36   1
    39     8    37   1
    40     9    38   1
    41    10    39   1
    42    11    40   1
    43    11    41   1
    44    12    42   1
    45    17    43   1
    46    19    44   1
    47    21    45   1
    48    22    46   1
    49    26    47   1
    50    27    48   1
    51    29    49   1
    52    30    50   1
@<TRIPOS>SUBSTRUCTURE
     1  OZZ      1

