@<TRIPOS>MOLECULE
3ozt_ligand_032
    50    52
SMALL
GAST_HUCK
****
This file was generated by PARSER (from files_GN.cpp)

@<TRIPOS>ATOM
      1 C1         40.3162   -2.0626  -12.8605 C.3         1 OZZ       0.1189
      2 C2         41.7655   -2.4066  -13.2531 C.3         1 OZZ       0.1403
      3 C3         41.6808   -3.9062  -13.6793 C.3         1 OZZ       0.2027
      4 O4         40.2880   -4.2606  -13.6714 O.3         1 OZZ      -0.3296
      5 C5         39.6385   -3.4425  -12.6978 C.3         1 OZZ       0.1082
      6 C6         38.1920   -3.4657  -12.8962 C.2         1 OZZ      -0.0658
      7 N7         42.2464   -4.2110  -14.9550 N.pl3       1 OZZ      -0.2105
      8 O8         40.2079   -1.2566  -11.6965 O.3         1 OZZ      -0.3846
      9 O9         42.7143   -2.2050  -12.2032 O.3         1 OZZ      -0.3834
     10 C10        37.3193   -2.7772  -12.1556 C.2         1 OZZ      -0.0744
     11 C11        35.8830   -2.8580  -12.3735 C.3         1 OZZ       0.0473
     12 N12        35.3861   -4.1199  -11.9093 N.am        1 OZZ      -0.2765
     13 C13        34.1699   -4.6021  -12.1447 C.2         1 OZZ       0.2411
     14 C14        33.7674   -5.8375  -11.6106 C.ar        1 OZZ       0.2482
     15 C15        34.1171   -6.2412  -10.2935 C.ar        1 OZZ       0.3921
     16 C16        33.7026   -7.4884   -9.7956 C.ar        1 OZZ       0.3797
     17 C17        32.9191   -8.3442  -10.5916 C.ar        1 OZZ       0.1691
     18 C18        32.5486   -7.9864  -11.9057 C.ar        1 OZZ       0.2168
     19 C19        32.9771   -6.7266  -12.3915 C.ar        1 OZZ       0.1162
     20 N20        31.7783   -8.8272  -12.6644 N.2         1 OZZ      -0.1404
     21 O21        34.7927   -5.4189   -9.4467 O.3         1 OZZ      -0.1763
     22 O22        34.0113   -7.8780   -8.5315 O.3         1 OZZ      -0.1825
     23 O23        33.4318   -4.0143  -12.9204 O.2         1 OZZ      -0.3823
     24 O24        31.3885   -9.9935  -12.2384 O.2         1 OZZ      -0.4541
     25 O25        31.3873   -8.5400  -13.7613 O.2         1 OZZ      -0.4541
     26 C26        41.7628   -3.6201  -16.0613 C.2         1 OZZ       0.0592
     27 C27        42.2947   -3.8643  -17.2765 C.2         1 OZZ      -0.0116
     28 C28        43.3236   -4.7607  -17.3823 C.2         1 OZZ       0.0683
     29 C29        43.2380   -5.1115  -15.0723 C.2         1 OZZ       0.0592
     30 C30        43.7912   -5.3950  -16.2681 C.2         1 OZZ      -0.0116
     31 O31        43.8208   -4.9931  -18.4776 O.2         1 OZZ      -0.4519
     32 H1         39.8471   -1.5264  -13.6970 H           1 OZZ       0.0667
     33 H2         42.0763   -1.7629  -14.0768 H           1 OZZ       0.0678
     34 H3         42.1374   -4.5079  -12.8812 H           1 OZZ       0.0999
     35 H4         39.8531   -3.8501  -11.6977 H           1 OZZ       0.0749
     36 H5         37.8402   -4.0455  -13.6268 H           1 OZZ       0.0477
     37 H6         40.6067   -1.7783  -10.9716 H           1 OZZ       0.2102
     38 H7         42.4623   -2.8099  -11.4781 H           1 OZZ       0.2101
     39 H8         37.6428   -2.1583  -11.4457 H           1 OZZ       0.0470
     40 H9         35.6819   -2.7242  -13.4371 H           1 OZZ       0.0643
     41 H10        35.3687   -2.0640  -11.8245 H           1 OZZ       0.0643
     42 H11        35.9916   -4.6744  -11.3808 H           1 OZZ       0.1867
     43 H12        32.6132   -9.2250  -10.1894 H           1 OZZ       0.1086
     44 H13        32.7283   -6.4511  -13.3487 H           1 OZZ       0.1563
     45 H14        34.2521   -4.5963   -9.4323 H           1 OZZ       0.3540
     46 H15        34.9890   -7.9230   -8.5088 H           1 OZZ       0.3497
     47 H16        41.0052   -2.9743  -16.0091 H           1 OZZ       0.1185
     48 H17        41.9495   -3.3898  -18.0828 H           1 OZZ       0.0387
     49 H18        43.5858   -5.5954  -14.2708 H           1 OZZ       0.1185
     50 H19        44.5204   -6.0655  -16.3319 H           1 OZZ       0.0387
@<TRIPOS>BOND
     1     1     2   1
     2     1     5   1
     3     1     8   1
     4     2     3   1
     5     2     9   1
     6     3     4   1
     7     3     7   1
     8     4     5   1
     9     5     6   1
    10     6    10   2
    11     7    26   1
    12     7    29   1
    13    10    11   1
    14    11    12   1
    15    12    13  am
    16    13    14   1
    17    13    23   2
    18    14    15  ar
    19    14    19  ar
    20    15    16  ar
    21    15    21   1
    22    16    17  ar
    23    16    22   1
    24    17    18  ar
    25    18    19  ar
    26    18    20   1
    27    20    24   2
    28    20    25   2
    29    26    27   2
    30    27    28   1
    31    28    30   1
    32    28    31   2
    33    29    30   2
    34     1    32   1
    35     2    33   1
    36     3    34   1
    37     5    35   1
    38     6    36   1
    39     8    37   1
    40     9    38   1
    41    10    39   1
    42    11    40   1
    43    11    41   1
    44    12    42   1
    45    17    43   1
    46    19    44   1
    47    21    45   1
    48    22    46   1
    49    26    47   1
    50    27    48   1
    51    29    49   1
    52    30    50   1
@<TRIPOS>SUBSTRUCTURE
     1  OZZ      1

