@<TRIPOS>MOLECULE
3ozt_ligand_018
    50    52
SMALL
GAST_HUCK
****
This file was generated by PARSER (from files_GN.cpp)

@<TRIPOS>ATOM
      1 C1         36.9818   -1.1088  -12.2187 C.3         1 OZZ       0.1189
      2 C2         36.7764    0.0317  -13.2365 C.3         1 OZZ       0.1403
      3 C3         35.2264    0.1686  -13.3283 C.3         1 OZZ       0.2027
      4 O4         34.6674   -0.7794  -12.4055 O.3         1 OZZ      -0.3296
      5 C5         35.6158   -1.8286  -12.1979 C.3         1 OZZ       0.1082
      6 C6         35.2091   -2.5563  -11.0041 C.2         1 OZZ      -0.0658
      7 N7         34.6937    1.4528  -13.0103 N.pl3       1 OZZ      -0.2105
      8 O8         38.0547   -1.9953  -12.5361 O.3         1 OZZ      -0.3846
      9 O9         37.3941   -0.2326  -14.5012 O.3         1 OZZ      -0.3834
     10 C10        35.9753   -2.8221   -9.9284 C.2         1 OZZ      -0.0744
     11 C11        35.5343   -3.6772   -8.8345 C.3         1 OZZ       0.0473
     12 N12        34.7429   -4.8100   -9.2110 N.am        1 OZZ      -0.2765
     13 C13        34.9168   -5.5931  -10.2675 C.2         1 OZZ       0.2411
     14 C14        34.0379   -6.6364  -10.4906 C.ar        1 OZZ       0.2482
     15 C15        33.7118   -7.5685   -9.4774 C.ar        1 OZZ       0.3921
     16 C16        32.7679   -8.5891   -9.7313 C.ar        1 OZZ       0.3797
     17 C17        32.1725   -8.6941  -11.0023 C.ar        1 OZZ       0.1691
     18 C18        32.4831   -7.7847  -12.0420 C.ar        1 OZZ       0.2168
     19 C19        33.4224   -6.7622  -11.7577 C.ar        1 OZZ       0.1162
     20 N20        31.8913   -7.8809  -13.2638 N.2         1 OZZ      -0.1404
     21 O21        34.3074   -7.5425   -8.2551 O.3         1 OZZ      -0.1763
     22 O22        32.4199   -9.4786   -8.7661 O.3         1 OZZ      -0.1825
     23 O23        35.7418   -5.3243  -11.1311 O.2         1 OZZ      -0.3823
     24 O24        31.0340   -8.8199  -13.5603 O.2         1 OZZ      -0.4541
     25 O25        32.1319   -7.1100  -14.1570 O.2         1 OZZ      -0.4541
     26 C26        35.0037    2.0286  -11.8360 C.2         1 OZZ       0.0592
     27 C27        34.4669    3.2099  -11.4712 C.2         1 OZZ      -0.0116
     28 C28        33.5877    3.8263  -12.3182 C.2         1 OZZ       0.0683
     29 C29        33.7897    2.0346  -13.8135 C.2         1 OZZ       0.0592
     30 C30        33.2272    3.2164  -13.4879 C.2         1 OZZ      -0.0116
     31 O31        33.1242    4.9204  -12.0332 O.2         1 OZZ      -0.4519
     32 H1         37.1778   -0.6706  -11.2347 H           1 OZZ       0.0667
     33 H2         37.2433    0.9455  -12.8589 H           1 OZZ       0.0678
     34 H3         34.9222   -0.1710  -14.3285 H           1 OZZ       0.0999
     35 H4         35.5615   -2.5177  -13.0476 H           1 OZZ       0.0749
     36 H5         34.3033   -2.9651  -11.0273 H           1 OZZ       0.0477
     37 H6         37.8645   -2.3219  -13.4389 H           1 OZZ       0.2102
     38 H7         36.6865   -0.5097  -15.1191 H           1 OZZ       0.2101
     39 H8         36.9144   -2.4903   -9.9058 H           1 OZZ       0.0470
     40 H9         34.9342   -3.0716   -8.1552 H           1 OZZ       0.0643
     41 H10        36.4042   -4.0370   -8.2729 H           1 OZZ       0.0643
     42 H11        33.9711   -5.0054   -8.6545 H           1 OZZ       0.1867
     43 H12        31.4806   -9.4267  -11.1562 H           1 OZZ       0.1086
     44 H13        33.6432   -6.0744  -12.4844 H           1 OZZ       0.1563
     45 H14        35.2746   -7.5207   -8.4191 H           1 OZZ       0.3540
     46 H15        31.9993   -8.9578   -8.0478 H           1 OZZ       0.3497
     47 H16        35.6319    1.5885  -11.2004 H           1 OZZ       0.1185
     48 H17        34.7051    3.6190  -10.5970 H           1 OZZ       0.0387
     49 H18        33.4830    1.5939  -14.6512 H           1 OZZ       0.1185
     50 H19        32.5450    3.6269  -14.0853 H           1 OZZ       0.0387
@<TRIPOS>BOND
     1     1     2   1
     2     1     5   1
     3     1     8   1
     4     2     3   1
     5     2     9   1
     6     3     4   1
     7     3     7   1
     8     4     5   1
     9     5     6   1
    10     6    10   2
    11     7    26   1
    12     7    29   1
    13    10    11   1
    14    11    12   1
    15    12    13  am
    16    13    14   1
    17    13    23   2
    18    14    15  ar
    19    14    19  ar
    20    15    16  ar
    21    15    21   1
    22    16    17  ar
    23    16    22   1
    24    17    18  ar
    25    18    19  ar
    26    18    20   1
    27    20    24   2
    28    20    25   2
    29    26    27   2
    30    27    28   1
    31    28    30   1
    32    28    31   2
    33    29    30   2
    34     1    32   1
    35     2    33   1
    36     3    34   1
    37     5    35   1
    38     6    36   1
    39     8    37   1
    40     9    38   1
    41    10    39   1
    42    11    40   1
    43    11    41   1
    44    12    42   1
    45    17    43   1
    46    19    44   1
    47    21    45   1
    48    22    46   1
    49    26    47   1
    50    27    48   1
    51    29    49   1
    52    30    50   1
@<TRIPOS>SUBSTRUCTURE
     1  OZZ      1

