@<TRIPOS>MOLECULE
3ozt_ligand_003
    50    52
SMALL
GAST_HUCK
****
This file was generated by PARSER (from files_GN.cpp)

@<TRIPOS>ATOM
      1 C1         35.8556   -2.8250  -13.6538 C.3         1 OZZ       0.1189
      2 C2         36.9709   -1.8559  -14.0947 C.3         1 OZZ       0.1403
      3 C3         38.1244   -2.1038  -13.0866 C.3         1 OZZ       0.2027
      4 O4         37.7530   -3.2558  -12.3126 O.3         1 OZZ      -0.3296
      5 C5         36.3217   -3.2715  -12.2555 C.3         1 OZZ       0.1082
      6 C6         35.8472   -4.5977  -11.8826 C.2         1 OZZ      -0.0658
      7 N7         39.3885   -2.2798  -13.7132 N.pl3       1 OZZ      -0.2105
      8 O8         34.5516   -2.2451  -13.5776 O.3         1 OZZ      -0.3846
      9 O9         36.5556   -0.4923  -14.0682 O.3         1 OZZ      -0.3834
     10 C10        34.8619   -4.7896  -10.9865 C.2         1 OZZ      -0.0744
     11 C11        34.4630   -6.0808  -10.4511 C.3         1 OZZ       0.0473
     12 N12        35.1607   -6.5158   -9.2741 N.am        1 OZZ      -0.2765
     13 C13        35.6056   -5.7865   -8.2523 C.2         1 OZZ       0.2411
     14 C14        36.2400   -6.3793   -7.1563 C.ar        1 OZZ       0.2482
     15 C15        35.7531   -7.5678   -6.5528 C.ar        1 OZZ       0.3921
     16 C16        36.3579   -8.0681   -5.3803 C.ar        1 OZZ       0.3797
     17 C17        37.4783   -7.4261   -4.8316 C.ar        1 OZZ       0.1691
     18 C18        38.0313   -6.2705   -5.4315 C.ar        1 OZZ       0.2168
     19 C19        37.3808   -5.7605   -6.5854 C.ar        1 OZZ       0.1162
     20 N20        39.1404   -5.6727   -4.9141 N.2         1 OZZ      -0.1404
     21 O21        34.6591   -8.1941   -7.0527 O.3         1 OZZ      -0.1763
     22 O22        35.8635   -9.1623   -4.7478 O.3         1 OZZ      -0.1825
     23 O23        35.4909   -4.5656   -8.2564 O.2         1 OZZ      -0.3823
     24 O24        39.7624   -6.1314   -3.8650 O.2         1 OZZ      -0.4541
     25 O25        39.6361   -4.6897   -5.4024 O.2         1 OZZ      -0.4541
     26 C26        39.6562   -3.4090  -14.3922 C.2         1 OZZ       0.0592
     27 C27        40.8506   -3.5990  -14.9917 C.2         1 OZZ      -0.0116
     28 C28        41.7900   -2.6060  -14.9295 C.2         1 OZZ       0.0683
     29 C29        40.3058   -1.3009  -13.6720 C.2         1 OZZ       0.0592
     30 C30        41.5085   -1.4430  -14.2665 C.2         1 OZZ      -0.0116
     31 O31        42.8714   -2.7477  -15.4846 O.2         1 OZZ      -0.4519
     32 H1         35.8231   -3.6773  -14.3421 H           1 OZZ       0.0667
     33 H2         37.2730   -2.0929  -15.1196 H           1 OZZ       0.0678
     34 H3         38.1447   -1.2716  -12.3696 H           1 OZZ       0.0999
     35 H4         36.0055   -2.5227  -11.5158 H           1 OZZ       0.0749
     36 H5         36.2705   -5.3856  -12.3207 H           1 OZZ       0.0477
     37 H6         34.3890   -1.8651  -14.4641 H           1 OZZ       0.2102
     38 H7         36.0761   -0.3852  -14.9151 H           1 OZZ       0.2101
     39 H8         34.4134   -3.9880  -10.6080 H           1 OZZ       0.0470
     40 H9         34.5866   -6.8521  -11.2161 H           1 OZZ       0.0643
     41 H10        33.3978   -6.0371  -10.2187 H           1 OZZ       0.0643
     42 H11        35.2928   -7.4727   -9.2137 H           1 OZZ       0.1867
     43 H12        37.8977   -7.8217   -3.9857 H           1 OZZ       0.1086
     44 H13        37.7644   -4.9208   -7.0322 H           1 OZZ       0.1563
     45 H14        34.9306   -9.1286   -7.1855 H           1 OZZ       0.3540
     46 H15        35.5508   -9.7663   -5.4560 H           1 OZZ       0.3497
     47 H16        38.9781   -4.1351  -14.4652 H           1 OZZ       0.1185
     48 H17        41.0426   -4.4525  -15.4687 H           1 OZZ       0.0387
     49 H18        40.1150   -0.4356  -13.2187 H           1 OZZ       0.1185
     50 H19        42.1714   -0.7009  -14.2375 H           1 OZZ       0.0387
@<TRIPOS>BOND
     1     1     2   1
     2     1     5   1
     3     1     8   1
     4     2     3   1
     5     2     9   1
     6     3     4   1
     7     3     7   1
     8     4     5   1
     9     5     6   1
    10     6    10   2
    11     7    26   1
    12     7    29   1
    13    10    11   1
    14    11    12   1
    15    12    13  am
    16    13    14   1
    17    13    23   2
    18    14    15  ar
    19    14    19  ar
    20    15    16  ar
    21    15    21   1
    22    16    17  ar
    23    16    22   1
    24    17    18  ar
    25    18    19  ar
    26    18    20   1
    27    20    24   2
    28    20    25   2
    29    26    27   2
    30    27    28   1
    31    28    30   1
    32    28    31   2
    33    29    30   2
    34     1    32   1
    35     2    33   1
    36     3    34   1
    37     5    35   1
    38     6    36   1
    39     8    37   1
    40     9    38   1
    41    10    39   1
    42    11    40   1
    43    11    41   1
    44    12    42   1
    45    17    43   1
    46    19    44   1
    47    21    45   1
    48    22    46   1
    49    26    47   1
    50    27    48   1
    51    29    49   1
    52    30    50   1
@<TRIPOS>SUBSTRUCTURE
     1  OZZ      1

