@<TRIPOS>MOLECULE
3ozt_ligand_004
    50    52
SMALL
GAST_HUCK
****
This file was generated by PARSER (from files_GN.cpp)

@<TRIPOS>ATOM
      1 C1         35.5710   -2.3908  -11.7130 C.3         1 OZZ       0.1189
      2 C2         36.0139   -2.0649  -13.1492 C.3         1 OZZ       0.1403
      3 C3         37.4591   -1.5224  -12.9615 C.3         1 OZZ       0.2027
      4 O4         37.6231   -1.2057  -11.5621 O.3         1 OZZ      -0.3296
      5 C5         36.3626   -1.3590  -10.8855 C.3         1 OZZ       0.1082
      6 C6         36.5313   -1.7049   -9.4807 C.2         1 OZZ      -0.0658
      7 N7         38.4994   -2.4154  -13.3715 N.pl3       1 OZZ      -0.2105
      8 O8         34.1536   -2.3160  -11.5571 O.3         1 OZZ      -0.3846
      9 O9         35.1519   -1.0802  -13.7336 O.3         1 OZZ      -0.3834
     10 C10        37.6248   -2.2841   -8.9567 C.2         1 OZZ      -0.0744
     11 C11        37.8354   -2.4469   -7.5294 C.3         1 OZZ       0.0473
     12 N12        37.4158   -3.7608   -7.1476 N.am        1 OZZ      -0.2765
     13 C13        38.1329   -4.7334   -6.5918 C.2         1 OZZ       0.2411
     14 C14        37.5976   -6.0027   -6.2882 C.ar        1 OZZ       0.2482
     15 C15        36.3399   -6.4635   -6.7741 C.ar        1 OZZ       0.3921
     16 C16        35.8828   -7.7635   -6.4918 C.ar        1 OZZ       0.3797
     17 C17        36.6400   -8.6173   -5.6726 C.ar        1 OZZ       0.1691
     18 C18        37.8808   -8.2068   -5.1397 C.ar        1 OZZ       0.2168
     19 C19        38.3356   -6.9033   -5.4686 C.ar        1 OZZ       0.1162
     20 N20        38.6158   -9.0481   -4.3503 N.2         1 OZZ      -0.1404
     21 O21        35.5322   -5.7011   -7.5555 O.3         1 OZZ      -0.1763
     22 O22        34.7144   -8.1996   -7.0330 O.3         1 OZZ      -0.1825
     23 O23        39.3090   -4.4970   -6.3404 O.2         1 OZZ      -0.3823
     24 O24        38.2117  -10.2521   -4.0435 O.2         1 OZZ      -0.4541
     25 O25        39.6836   -8.7370   -3.8869 O.2         1 OZZ      -0.4541
     26 C26        38.6485   -3.6096  -12.7724 C.2         1 OZZ       0.0592
     27 C27        39.5353   -4.5220  -13.2254 C.2         1 OZZ      -0.0116
     28 C28        40.3132   -4.2071  -14.3025 C.2         1 OZZ       0.0683
     29 C29        39.3238   -2.0869  -14.3769 C.2         1 OZZ       0.0592
     30 C30        40.2316   -2.9627  -14.8568 C.2         1 OZZ      -0.0116
     31 O31        41.0758   -5.0401  -14.7692 O.2         1 OZZ      -0.4519
     32 H1         35.8869   -3.4054  -11.4620 H           1 OZZ       0.0667
     33 H2         35.9903   -2.9602  -13.7744 H           1 OZZ       0.0678
     34 H3         37.5212   -0.5598  -13.4827 H           1 OZZ       0.0999
     35 H4         35.8450   -0.3903  -10.9295 H           1 OZZ       0.0749
     36 H5         35.8098   -1.4250   -8.8546 H           1 OZZ       0.0477
     37 H6         33.9499   -2.7905  -10.7233 H           1 OZZ       0.2102
     38 H7         35.2361   -1.1753  -14.7075 H           1 OZZ       0.2101
     39 H8         38.3413   -2.6106   -9.5646 H           1 OZZ       0.0470
     40 H9         37.2440   -1.7401   -6.9445 H           1 OZZ       0.0643
     41 H10        38.8844   -2.2436   -7.3084 H           1 OZZ       0.0643
     42 H11        36.4784   -3.9394   -7.2995 H           1 OZZ       0.1867
     43 H12        36.2727   -9.5480   -5.4661 H           1 OZZ       0.1086
     44 H13        39.2374   -6.6064   -5.0903 H           1 OZZ       0.1563
     45 H14        35.8536   -5.8596   -8.4670 H           1 OZZ       0.3540
     46 H15        34.8325   -9.1613   -7.1855 H           1 OZZ       0.3497
     47 H16        38.1145   -3.8550  -11.9754 H           1 OZZ       0.1185
     48 H17        39.6237   -5.4038  -12.7699 H           1 OZZ       0.0387
     49 H18        39.2926   -1.1811  -14.7915 H           1 OZZ       0.1185
     50 H19        40.8338   -2.7009  -15.6021 H           1 OZZ       0.0387
@<TRIPOS>BOND
     1     1     2   1
     2     1     5   1
     3     1     8   1
     4     2     3   1
     5     2     9   1
     6     3     4   1
     7     3     7   1
     8     4     5   1
     9     5     6   1
    10     6    10   2
    11     7    26   1
    12     7    29   1
    13    10    11   1
    14    11    12   1
    15    12    13  am
    16    13    14   1
    17    13    23   2
    18    14    15  ar
    19    14    19  ar
    20    15    16  ar
    21    15    21   1
    22    16    17  ar
    23    16    22   1
    24    17    18  ar
    25    18    19  ar
    26    18    20   1
    27    20    24   2
    28    20    25   2
    29    26    27   2
    30    27    28   1
    31    28    30   1
    32    28    31   2
    33    29    30   2
    34     1    32   1
    35     2    33   1
    36     3    34   1
    37     5    35   1
    38     6    36   1
    39     8    37   1
    40     9    38   1
    41    10    39   1
    42    11    40   1
    43    11    41   1
    44    12    42   1
    45    17    43   1
    46    19    44   1
    47    21    45   1
    48    22    46   1
    49    26    47   1
    50    27    48   1
    51    29    49   1
    52    30    50   1
@<TRIPOS>SUBSTRUCTURE
     1  OZZ      1

