@<TRIPOS>MOLECULE
3ozt_ligand_040
    50    52
SMALL
GAST_HUCK
****
This file was generated by PARSER (from files_GN.cpp)

@<TRIPOS>ATOM
      1 C1         38.4540   -1.4257   -5.7028 C.3         1 OZZ       0.1189
      2 C2         38.7830   -1.7766   -4.2417 C.3         1 OZZ       0.1403
      3 C3         38.4403   -3.2901   -4.1277 C.3         1 OZZ       0.2027
      4 O4         37.9967   -3.7108   -5.4374 O.3         1 OZZ      -0.3296
      5 C5         37.5001   -2.5589   -6.1263 C.3         1 OZZ       0.1082
      6 C6         37.4939   -2.8019   -7.5627 C.2         1 OZZ      -0.0658
      7 N7         39.5073   -4.0624   -3.5817 N.pl3       1 OZZ      -0.2105
      8 O8         37.8457   -0.1373   -5.8512 O.3         1 OZZ      -0.3846
      9 O9         38.0000   -0.9989   -3.3291 O.3         1 OZZ      -0.3834
     10 C10        36.9249   -1.9582   -8.4439 C.2         1 OZZ      -0.0744
     11 C11        36.9958   -2.1619   -9.8825 C.3         1 OZZ       0.0473
     12 N12        36.2049   -1.1949  -10.5860 N.am        1 OZZ      -0.2765
     13 C13        36.5851   -0.4591  -11.6198 C.2         1 OZZ       0.2411
     14 C14        35.6314    0.2658  -12.2901 C.ar        1 OZZ       0.2482
     15 C15        35.0197   -0.2709  -13.4456 C.ar        1 OZZ       0.3921
     16 C16        33.9738    0.4330  -14.0758 C.ar        1 OZZ       0.3797
     17 C17        33.5618    1.6874  -13.5838 C.ar        1 OZZ       0.1691
     18 C18        34.1660    2.2568  -12.4370 C.ar        1 OZZ       0.2168
     19 C19        35.1937    1.5133  -11.7935 C.ar        1 OZZ       0.1162
     20 N20        33.7604    3.4757  -11.9634 N.2         1 OZZ      -0.1404
     21 O21        35.3749   -1.5073  -13.8997 O.3         1 OZZ      -0.1763
     22 O22        33.3504   -0.1112  -15.1530 O.3         1 OZZ      -0.1825
     23 O23        37.7136   -0.5324  -12.1050 O.2         1 OZZ      -0.3823
     24 O24        32.8427    4.1888  -12.5669 O.2         1 OZZ      -0.4541
     25 O25        34.2536    3.9925  -10.9913 O.2         1 OZZ      -0.4541
     26 C26        40.1245   -5.0224   -4.2967 C.2         1 OZZ       0.0592
     27 C27        41.1175   -5.7606   -3.7703 C.2         1 OZZ      -0.0116
     28 C28        41.5181   -5.5195   -2.4833 C.2         1 OZZ       0.0683
     29 C29        39.9235   -3.8094   -2.3301 C.2         1 OZZ       0.0592
     30 C30        40.9149   -4.5250   -1.7582 C.2         1 OZZ      -0.0116
     31 O31        42.4237   -6.1752   -1.9850 O.2         1 OZZ      -0.4519
     32 H1         39.3800   -1.4649   -6.3060 H           1 OZZ       0.0667
     33 H2         39.8434   -1.5806   -4.0528 H           1 OZZ       0.0678
     34 H3         37.5569   -3.4258   -3.4847 H           1 OZZ       0.0999
     35 H4         36.4849   -2.3481   -5.7876 H           1 OZZ       0.0749
     36 H5         37.9556   -3.6216   -7.9108 H           1 OZZ       0.0477
     37 H6         38.5887    0.4669   -6.0981 H           1 OZZ       0.2102
     38 H7         38.2920   -1.2968   -2.4345 H           1 OZZ       0.2101
     39 H8         36.4386   -1.1563   -8.0910 H           1 OZZ       0.0470
     40 H9         36.5812   -3.1440  -10.1149 H           1 OZZ       0.0643
     41 H10        38.0510   -2.1548  -10.1835 H           1 OZZ       0.0643
     42 H11        35.2743   -1.1205  -10.3116 H           1 OZZ       0.1867
     43 H12        32.8151    2.1849  -14.0737 H           1 OZZ       0.1086
     44 H13        35.6418    1.9001  -10.9581 H           1 OZZ       0.1563
     45 H14        35.4235   -1.4099  -14.8795 H           1 OZZ       0.3540
     46 H15        32.4137    0.1782  -15.0815 H           1 OZZ       0.3497
     47 H16        39.8779   -5.2032   -5.2460 H           1 OZZ       0.1185
     48 H17        41.5757   -6.4583   -4.3145 H           1 OZZ       0.0387
     49 H18        39.4967   -3.0947   -1.7882 H           1 OZZ       0.1185
     50 H19        41.2020   -4.3279   -0.8248 H           1 OZZ       0.0387
@<TRIPOS>BOND
     1     1     2   1
     2     1     5   1
     3     1     8   1
     4     2     3   1
     5     2     9   1
     6     3     4   1
     7     3     7   1
     8     4     5   1
     9     5     6   1
    10     6    10   2
    11     7    26   1
    12     7    29   1
    13    10    11   1
    14    11    12   1
    15    12    13  am
    16    13    14   1
    17    13    23   2
    18    14    15  ar
    19    14    19  ar
    20    15    16  ar
    21    15    21   1
    22    16    17  ar
    23    16    22   1
    24    17    18  ar
    25    18    19  ar
    26    18    20   1
    27    20    24   2
    28    20    25   2
    29    26    27   2
    30    27    28   1
    31    28    30   1
    32    28    31   2
    33    29    30   2
    34     1    32   1
    35     2    33   1
    36     3    34   1
    37     5    35   1
    38     6    36   1
    39     8    37   1
    40     9    38   1
    41    10    39   1
    42    11    40   1
    43    11    41   1
    44    12    42   1
    45    17    43   1
    46    19    44   1
    47    21    45   1
    48    22    46   1
    49    26    47   1
    50    27    48   1
    51    29    49   1
    52    30    50   1
@<TRIPOS>SUBSTRUCTURE
     1  OZZ      1

