@<TRIPOS>MOLECULE
3ozt_ligand_062
    50    52
SMALL
GAST_HUCK
****
This file was generated by PARSER (from files_GN.cpp)

@<TRIPOS>ATOM
      1 C1         35.4073   -3.7315  -10.9353 C.3         1 OZZ       0.1189
      2 C2         34.7661   -5.1155  -10.6710 C.3         1 OZZ       0.1403
      3 C3         33.5812   -5.1735  -11.6721 C.3         1 OZZ       0.2027
      4 O4         34.0579   -4.4333  -12.8106 O.3         1 OZZ      -0.3296
      5 C5         34.8349   -3.3260  -12.3273 C.3         1 OZZ       0.1082
      6 C6         35.8614   -3.0291  -13.3150 C.2         1 OZZ      -0.0658
      7 N7         33.0331   -6.4218  -12.1078 N.pl3       1 OZZ      -0.2105
      8 O8         35.0838   -2.7720   -9.9310 O.3         1 OZZ      -0.3846
      9 O9         34.3305   -5.3105   -9.3258 O.3         1 OZZ      -0.3834
     10 C10        36.2964   -1.7861  -13.5718 C.2         1 OZZ      -0.0744
     11 C11        37.2903   -1.4845  -14.5790 C.3         1 OZZ       0.0473
     12 N12        38.5956   -1.8815  -14.1458 N.am        1 OZZ      -0.2765
     13 C13        39.7373   -1.3473  -14.5668 C.2         1 OZZ       0.2411
     14 C14        40.9397   -1.8266  -14.0987 C.ar        1 OZZ       0.2482
     15 C15        41.3908   -1.5240  -12.7919 C.ar        1 OZZ       0.3921
     16 C16        42.6456   -1.9901  -12.3582 C.ar        1 OZZ       0.3797
     17 C17        43.4480   -2.7634  -13.2143 C.ar        1 OZZ       0.1691
     18 C18        43.0287   -3.0815  -14.5310 C.ar        1 OZZ       0.2168
     19 C19        41.7711   -2.5921  -14.9571 C.ar        1 OZZ       0.1162
     20 N20        43.8212   -3.8310  -15.3543 N.2         1 OZZ      -0.1404
     21 O21        40.6504   -0.7450  -11.9588 O.3         1 OZZ      -0.1763
     22 O22        43.0993   -1.6902  -11.1150 O.3         1 OZZ      -0.1825
     23 O23        39.7681   -0.4157  -15.3526 O.2         1 OZZ      -0.3823
     24 O24        44.9842   -4.2928  -14.9803 O.2         1 OZZ      -0.4541
     25 O25        43.4988   -4.1214  -16.4788 O.2         1 OZZ      -0.4541
     26 C26        33.7756   -7.5294  -12.2696 C.2         1 OZZ       0.0592
     27 C27        33.2399   -8.6867  -12.7006 C.2         1 OZZ      -0.0116
     28 C28        31.9207   -8.7234  -13.0364 C.2         1 OZZ       0.0683
     29 C29        31.7444   -6.4576  -12.4981 C.2         1 OZZ       0.0592
     30 C30        31.1718   -7.5844  -12.9602 C.2         1 OZZ      -0.0116
     31 O31        31.4308   -9.7543  -13.4621 O.2         1 OZZ      -0.4519
     32 H1         36.5019   -3.8128  -10.9454 H           1 OZZ       0.0667
     33 H2         35.5216   -5.8762  -10.8851 H           1 OZZ       0.0678
     34 H3         32.7819   -4.5734  -11.2054 H           1 OZZ       0.0999
     35 H4         34.1546   -2.4790  -12.2057 H           1 OZZ       0.0749
     36 H5         36.2524   -3.7969  -13.8147 H           1 OZZ       0.0477
     37 H6         34.1050   -2.7815   -9.8772 H           1 OZZ       0.2102
     38 H7         33.8914   -6.1944   -9.3445 H           1 OZZ       0.2101
     39 H8         35.9077   -1.0284  -13.0565 H           1 OZZ       0.0470
     40 H9         37.2607   -0.4115  -14.7769 H           1 OZZ       0.0643
     41 H10        37.0457   -2.0000  -15.5096 H           1 OZZ       0.0643
     42 H11        38.6571   -2.6539  -13.5589 H           1 OZZ       0.1867
     43 H12        44.3548   -3.0900  -12.8678 H           1 OZZ       0.1086
     44 H13        41.4444   -2.7950  -15.9053 H           1 OZZ       0.1563
     45 H14        40.9365    0.1713  -12.1587 H           1 OZZ       0.3540
     46 H15        43.5405   -0.8200  -11.2145 H           1 OZZ       0.3497
     47 H16        34.7556   -7.5203  -12.0973 H           1 OZZ       0.1185
     48 H17        33.8191   -9.4916  -12.7872 H           1 OZZ       0.0387
     49 H18        31.1657   -5.6476  -12.4471 H           1 OZZ       0.1185
     50 H19        30.2203   -7.5909  -13.2441 H           1 OZZ       0.0387
@<TRIPOS>BOND
     1     1     2   1
     2     1     5   1
     3     1     8   1
     4     2     3   1
     5     2     9   1
     6     3     4   1
     7     3     7   1
     8     4     5   1
     9     5     6   1
    10     6    10   2
    11     7    26   1
    12     7    29   1
    13    10    11   1
    14    11    12   1
    15    12    13  am
    16    13    14   1
    17    13    23   2
    18    14    15  ar
    19    14    19  ar
    20    15    16  ar
    21    15    21   1
    22    16    17  ar
    23    16    22   1
    24    17    18  ar
    25    18    19  ar
    26    18    20   1
    27    20    24   2
    28    20    25   2
    29    26    27   2
    30    27    28   1
    31    28    30   1
    32    28    31   2
    33    29    30   2
    34     1    32   1
    35     2    33   1
    36     3    34   1
    37     5    35   1
    38     6    36   1
    39     8    37   1
    40     9    38   1
    41    10    39   1
    42    11    40   1
    43    11    41   1
    44    12    42   1
    45    17    43   1
    46    19    44   1
    47    21    45   1
    48    22    46   1
    49    26    47   1
    50    27    48   1
    51    29    49   1
    52    30    50   1
@<TRIPOS>SUBSTRUCTURE
     1  OZZ      1

