@<TRIPOS>MOLECULE
3ozt_ligand_052
    50    52
SMALL
GAST_HUCK
****
This file was generated by PARSER (from files_GN.cpp)

@<TRIPOS>ATOM
      1 C1         38.6572   -3.0485  -13.9202 C.3         1 OZZ       0.1189
      2 C2         38.8676   -3.6910  -12.5478 C.3         1 OZZ       0.1403
      3 C3         39.1941   -2.4581  -11.6693 C.3         1 OZZ       0.2027
      4 O4         38.4983   -1.3373  -12.2490 O.3         1 OZZ      -0.3296
      5 C5         37.9745   -1.7060  -13.5457 C.3         1 OZZ       0.1082
      6 C6         36.5127   -1.7932  -13.5618 C.2         1 OZZ      -0.0658
      7 N7         38.8998   -2.6306  -10.2835 N.pl3       1 OZZ      -0.2105
      8 O8         39.9100   -2.8185  -14.5671 O.3         1 OZZ      -0.3846
      9 O9         39.9101   -4.6686  -12.5403 O.3         1 OZZ      -0.3834
     10 C10        35.7134   -1.4777  -12.5254 C.2         1 OZZ      -0.0744
     11 C11        34.2888   -1.7773  -12.4873 C.3         1 OZZ       0.0473
     12 N12        34.0357   -3.0534  -11.8862 N.am        1 OZZ      -0.2765
     13 C13        34.1364   -4.2445  -12.4749 C.2         1 OZZ       0.2411
     14 C14        33.7834   -5.4282  -11.8309 C.ar        1 OZZ       0.2482
     15 C15        34.1984   -5.7407  -10.5068 C.ar        1 OZZ       0.3921
     16 C16        33.8232   -6.9591   -9.9085 C.ar        1 OZZ       0.3797
     17 C17        33.0236   -7.8757  -10.6145 C.ar        1 OZZ       0.1691
     18 C18        32.5697   -7.6004  -11.9248 C.ar        1 OZZ       0.2168
     19 C19        32.9731   -6.3787  -12.5113 C.ar        1 OZZ       0.1162
     20 N20        31.7418   -8.4713  -12.5714 N.2         1 OZZ      -0.1404
     21 O21        34.9626   -4.8844   -9.7855 O.3         1 OZZ      -0.1763
     22 O22        34.1761   -7.2593   -8.6266 O.3         1 OZZ      -0.1825
     23 O23        34.5010   -4.2919  -13.6462 O.2         1 OZZ      -0.3823
     24 O24        31.3875   -9.6123  -12.0509 O.2         1 OZZ      -0.4541
     25 O25        31.2603   -8.2497  -13.6526 O.2         1 OZZ      -0.4541
     26 C26        37.6299   -2.6094   -9.8488 C.2         1 OZZ       0.0592
     27 C27        37.3366   -2.6143   -8.5298 C.2         1 OZZ      -0.0116
     28 C28        38.3583   -2.6691   -7.6213 C.2         1 OZZ       0.0683
     29 C29        39.8943   -2.7728   -9.3883 C.2         1 OZZ       0.0592
     30 C30        39.6460   -2.7904   -8.0574 C.2         1 OZZ      -0.0116
     31 O31        38.1145   -2.6059   -6.4233 O.2         1 OZZ      -0.4519
     32 H1         38.0412   -3.6898  -14.5616 H           1 OZZ       0.0667
     33 H2         37.9312   -4.1704  -12.2322 H           1 OZZ       0.0678
     34 H3         40.2524   -2.2308  -11.8243 H           1 OZZ       0.0999
     35 H4         38.2571   -0.9337  -14.2723 H           1 OZZ       0.0749
     36 H5         36.0859   -2.1071  -14.3963 H           1 OZZ       0.0477
     37 H6         39.7040   -2.8467  -15.5313 H           1 OZZ       0.2102
     38 H7         39.9358   -4.9965  -11.6169 H           1 OZZ       0.2101
     39 H8         36.1103   -1.0584  -11.7079 H           1 OZZ       0.0470
     40 H9         33.8398   -1.7094  -13.4810 H           1 OZZ       0.0643
     41 H10        33.7973   -1.0238  -11.8630 H           1 OZZ       0.0643
     42 H11        33.6592   -3.0438  -10.9876 H           1 OZZ       0.1867
     43 H12        32.7545   -8.7438  -10.1463 H           1 OZZ       0.1086
     44 H13        32.6529   -6.1622  -13.4597 H           1 OZZ       0.1563
     45 H14        34.3187   -4.2372   -9.4324 H           1 OZZ       0.3540
     46 H15        35.1509   -7.1122   -8.5808 H           1 OZZ       0.3497
     47 H16        36.8725   -2.6054  -10.4904 H           1 OZZ       0.1185
     48 H17        36.3880   -2.5929   -8.2221 H           1 OZZ       0.0387
     49 H18        40.8430   -2.8827   -9.6802 H           1 OZZ       0.1185
     50 H19        40.3938   -2.8950   -7.4091 H           1 OZZ       0.0387
@<TRIPOS>BOND
     1     1     2   1
     2     1     5   1
     3     1     8   1
     4     2     3   1
     5     2     9   1
     6     3     4   1
     7     3     7   1
     8     4     5   1
     9     5     6   1
    10     6    10   2
    11     7    26   1
    12     7    29   1
    13    10    11   1
    14    11    12   1
    15    12    13  am
    16    13    14   1
    17    13    23   2
    18    14    15  ar
    19    14    19  ar
    20    15    16  ar
    21    15    21   1
    22    16    17  ar
    23    16    22   1
    24    17    18  ar
    25    18    19  ar
    26    18    20   1
    27    20    24   2
    28    20    25   2
    29    26    27   2
    30    27    28   1
    31    28    30   1
    32    28    31   2
    33    29    30   2
    34     1    32   1
    35     2    33   1
    36     3    34   1
    37     5    35   1
    38     6    36   1
    39     8    37   1
    40     9    38   1
    41    10    39   1
    42    11    40   1
    43    11    41   1
    44    12    42   1
    45    17    43   1
    46    19    44   1
    47    21    45   1
    48    22    46   1
    49    26    47   1
    50    27    48   1
    51    29    49   1
    52    30    50   1
@<TRIPOS>SUBSTRUCTURE
     1  OZZ      1

