@<TRIPOS>MOLECULE
3ozt_ligand_020
    50    52
SMALL
GAST_HUCK
****
This file was generated by PARSER (from files_GN.cpp)

@<TRIPOS>ATOM
      1 C1         40.0987   -3.8030  -11.8964 C.3         1 OZZ       0.1189
      2 C2         40.7684   -3.4980  -10.5421 C.3         1 OZZ       0.1403
      3 C3         40.3969   -2.0135  -10.2616 C.3         1 OZZ       0.2027
      4 O4         39.5896   -1.5603  -11.3609 O.3         1 OZZ      -0.3296
      5 C5         39.8672   -2.3978  -12.4917 C.3         1 OZZ       0.1082
      6 C6         38.8140   -2.3077  -13.4927 C.2         1 OZZ      -0.0658
      7 N7         39.7054   -1.7927   -9.0317 N.pl3       1 OZZ      -0.2105
      8 O8         40.8645   -4.6429  -12.7602 O.3         1 OZZ      -0.3846
      9 O9         42.1860   -3.6781  -10.5894 O.3         1 OZZ      -0.3834
     10 C10        37.5338   -2.6526  -13.2482 C.2         1 OZZ      -0.0744
     11 C11        36.4501   -2.5002  -14.2041 C.3         1 OZZ       0.0473
     12 N12        35.7757   -1.2446  -14.0791 N.am        1 OZZ      -0.2765
     13 C13        35.0613   -0.8099  -13.0415 C.2         1 OZZ       0.2411
     14 C14        34.4865    0.4624  -13.0570 C.ar        1 OZZ       0.2482
     15 C15        33.7419    0.9338  -14.1698 C.ar        1 OZZ       0.3921
     16 C16        33.1955    2.2318  -14.1716 C.ar        1 OZZ       0.3797
     17 C17        33.3551    3.0617  -13.0511 C.ar        1 OZZ       0.1691
     18 C18        34.0545    2.6203  -11.9005 C.ar        1 OZZ       0.2168
     19 C19        34.6210    1.3171  -11.9355 C.ar        1 OZZ       0.1162
     20 N20        34.1726    3.4199  -10.8033 N.2         1 OZZ      -0.1404
     21 O21        33.5071    0.1278  -15.2333 O.3         1 OZZ      -0.1763
     22 O22        32.4814    2.6745  -15.2394 O.3         1 OZZ      -0.1825
     23 O23        34.9686   -1.4867  -12.0241 O.2         1 OZZ      -0.3823
     24 O24        33.7222    4.6459  -10.7809 O.2         1 OZZ      -0.4541
     25 O25        34.7008    3.0536   -9.7868 O.2         1 OZZ      -0.4541
     26 C26        38.4614   -2.2750   -8.8612 C.2         1 OZZ       0.0592
     27 C27        37.7373   -1.9793   -7.7600 C.2         1 OZZ      -0.0116
     28 C28        38.2903   -1.1832   -6.7925 C.2         1 OZZ       0.0683
     29 C29        40.2592   -1.0474   -8.0605 C.2         1 OZZ       0.0592
     30 C30        39.5745   -0.7290   -6.9398 C.2         1 OZZ      -0.0116
     31 O31        37.6138   -0.8208   -5.8373 O.2         1 OZZ      -0.4519
     32 H1         39.1526   -4.3072  -11.7042 H           1 OZZ       0.0667
     33 H2         40.3811   -4.1731   -9.7757 H           1 OZZ       0.0678
     34 H3         41.3153   -1.4192  -10.3195 H           1 OZZ       0.0999
     35 H4         40.8012   -2.0424  -12.9525 H           1 OZZ       0.0749
     36 H5         39.0444   -1.9498  -14.3860 H           1 OZZ       0.0477
     37 H6         40.2443   -4.8896  -13.4805 H           1 OZZ       0.2102
     38 H7         42.3142   -4.6469  -10.6902 H           1 OZZ       0.2101
     39 H8         37.2941   -2.9853  -12.3418 H           1 OZZ       0.0470
     40 H9         35.7327   -3.3224  -14.0739 H           1 OZZ       0.0643
     41 H10        36.8243   -2.5832  -15.2286 H           1 OZZ       0.0643
     42 H11        35.8463   -0.6543  -14.8407 H           1 OZZ       0.1867
     43 H12        32.9333    3.9912  -13.0716 H           1 OZZ       0.1086
     44 H13        35.1656    0.9973  -11.1292 H           1 OZZ       0.1563
     45 H14        32.5349    0.0081  -15.2530 H           1 OZZ       0.3540
     46 H15        32.9920    3.4394  -15.6139 H           1 OZZ       0.3497
     47 H16        38.0441   -2.8592   -9.5457 H           1 OZZ       0.1185
     48 H17        36.8156   -2.3361   -7.6528 H           1 OZZ       0.0387
     49 H18        41.1872   -0.6998   -8.1440 H           1 OZZ       0.1185
     50 H19        39.9917   -0.1588   -6.2394 H           1 OZZ       0.0387
@<TRIPOS>BOND
     1     1     2   1
     2     1     5   1
     3     1     8   1
     4     2     3   1
     5     2     9   1
     6     3     4   1
     7     3     7   1
     8     4     5   1
     9     5     6   1
    10     6    10   2
    11     7    26   1
    12     7    29   1
    13    10    11   1
    14    11    12   1
    15    12    13  am
    16    13    14   1
    17    13    23   2
    18    14    15  ar
    19    14    19  ar
    20    15    16  ar
    21    15    21   1
    22    16    17  ar
    23    16    22   1
    24    17    18  ar
    25    18    19  ar
    26    18    20   1
    27    20    24   2
    28    20    25   2
    29    26    27   2
    30    27    28   1
    31    28    30   1
    32    28    31   2
    33    29    30   2
    34     1    32   1
    35     2    33   1
    36     3    34   1
    37     5    35   1
    38     6    36   1
    39     8    37   1
    40     9    38   1
    41    10    39   1
    42    11    40   1
    43    11    41   1
    44    12    42   1
    45    17    43   1
    46    19    44   1
    47    21    45   1
    48    22    46   1
    49    26    47   1
    50    27    48   1
    51    29    49   1
    52    30    50   1
@<TRIPOS>SUBSTRUCTURE
     1  OZZ      1

