@<TRIPOS>MOLECULE
3ozt_ligand_051
    50    52
SMALL
GAST_HUCK
****
This file was generated by PARSER (from files_GN.cpp)

@<TRIPOS>ATOM
      1 C1         38.7433   -2.7157  -13.6153 C.3         1 OZZ       0.1189
      2 C2         40.2303   -2.4066  -13.8862 C.3         1 OZZ       0.1403
      3 C3         40.5894   -1.3098  -12.8233 C.3         1 OZZ       0.2027
      4 O4         39.3769   -1.1041  -12.0696 O.3         1 OZZ      -0.3296
      5 C5         38.2674   -1.4256  -12.9203 C.3         1 OZZ       0.1082
      6 C6         37.0364   -1.5808  -12.1586 C.2         1 OZZ      -0.0658
      7 N7         41.6772   -1.4162  -11.8946 N.pl3       1 OZZ      -0.2105
      8 O8         37.9766   -3.0604  -14.7729 O.3         1 OZZ      -0.3846
      9 O9         40.4347   -1.8920  -15.2106 O.3         1 OZZ      -0.3834
     10 C10        35.8279   -1.6383  -12.7512 C.2         1 OZZ      -0.0744
     11 C11        34.5695   -1.7371  -12.0346 C.3         1 OZZ       0.0473
     12 N12        34.2709   -3.0593  -11.5622 N.am        1 OZZ      -0.2765
     13 C13        34.0207   -4.1415  -12.2974 C.2         1 OZZ       0.2411
     14 C14        33.7038   -5.3870  -11.7260 C.ar        1 OZZ       0.2482
     15 C15        34.1312   -5.7708  -10.4266 C.ar        1 OZZ       0.3921
     16 C16        33.7844   -7.0260   -9.8898 C.ar        1 OZZ       0.3797
     17 C17        33.0126   -7.9226  -10.6443 C.ar        1 OZZ       0.1691
     18 C18        32.5543   -7.5927  -11.9384 C.ar        1 OZZ       0.2168
     19 C19        32.9194   -6.3242  -12.4581 C.ar        1 OZZ       0.1162
     20 N20        31.7493   -8.4550  -12.6261 N.2         1 OZZ      -0.1404
     21 O21        34.8835   -4.9602   -9.6401 O.3         1 OZZ      -0.1763
     22 O22        34.1322   -7.3730   -8.6214 O.3         1 OZZ      -0.1825
     23 O23        34.0375   -4.0262  -13.5187 O.2         1 OZZ      -0.3823
     24 O24        31.4397   -9.6391  -12.1696 O.2         1 OZZ      -0.4541
     25 O25        31.2634   -8.1952  -13.6934 O.2         1 OZZ      -0.4541
     26 C26        41.9721   -0.3279  -11.1518 C.2         1 OZZ       0.0592
     27 C27        43.0358   -0.3039  -10.3189 C.2         1 OZZ      -0.0116
     28 C28        43.8335   -1.4103  -10.2301 C.2         1 OZZ       0.0683
     29 C29        42.4189   -2.5257  -11.7382 C.2         1 OZZ       0.0592
     30 C30        43.5043   -2.5367  -10.9306 C.2         1 OZZ      -0.0116
     31 O31        44.7882   -1.4131   -9.4621 O.2         1 OZZ      -0.4519
     32 H1         38.6824   -3.5571  -12.9131 H           1 OZZ       0.0667
     33 H2         40.7934   -3.3309  -13.8066 H           1 OZZ       0.0678
     34 H3         40.7599   -0.3826  -13.3963 H           1 OZZ       0.0999
     35 H4         38.1401   -0.6156  -13.6505 H           1 OZZ       0.0749
     36 H5         37.0854   -1.5790  -11.1609 H           1 OZZ       0.0477
     37 H6         38.0153   -2.2764  -15.3601 H           1 OZZ       0.2102
     38 H7         40.1426   -2.6057  -15.8191 H           1 OZZ       0.2101
     39 H8         35.7751   -1.5798  -13.7499 H           1 OZZ       0.0470
     40 H9         33.7502   -1.4012  -12.6797 H           1 OZZ       0.0643
     41 H10        34.5830   -1.0619  -11.1728 H           1 OZZ       0.0643
     42 H11        34.1202   -3.1431  -10.6111 H           1 OZZ       0.1867
     43 H12        32.7697   -8.8209  -10.2218 H           1 OZZ       0.1086
     44 H13        32.5828   -6.0691  -13.3903 H           1 OZZ       0.1563
     45 H14        34.2221   -4.3546   -9.2505 H           1 OZZ       0.3540
     46 H15        35.0304   -7.0052   -8.4748 H           1 OZZ       0.3497
     47 H16        41.4033    0.4944  -11.1994 H           1 OZZ       0.1185
     48 H17        43.2240    0.5073   -9.7724 H           1 OZZ       0.0387
     49 H18        42.1725   -3.3872  -12.1676 H           1 OZZ       0.1185
     50 H19        44.0398   -3.3706  -10.8203 H           1 OZZ       0.0387
@<TRIPOS>BOND
     1     1     2   1
     2     1     5   1
     3     1     8   1
     4     2     3   1
     5     2     9   1
     6     3     4   1
     7     3     7   1
     8     4     5   1
     9     5     6   1
    10     6    10   2
    11     7    26   1
    12     7    29   1
    13    10    11   1
    14    11    12   1
    15    12    13  am
    16    13    14   1
    17    13    23   2
    18    14    15  ar
    19    14    19  ar
    20    15    16  ar
    21    15    21   1
    22    16    17  ar
    23    16    22   1
    24    17    18  ar
    25    18    19  ar
    26    18    20   1
    27    20    24   2
    28    20    25   2
    29    26    27   2
    30    27    28   1
    31    28    30   1
    32    28    31   2
    33    29    30   2
    34     1    32   1
    35     2    33   1
    36     3    34   1
    37     5    35   1
    38     6    36   1
    39     8    37   1
    40     9    38   1
    41    10    39   1
    42    11    40   1
    43    11    41   1
    44    12    42   1
    45    17    43   1
    46    19    44   1
    47    21    45   1
    48    22    46   1
    49    26    47   1
    50    27    48   1
    51    29    49   1
    52    30    50   1
@<TRIPOS>SUBSTRUCTURE
     1  OZZ      1

