@<TRIPOS>MOLECULE
3ozt_ligand_077
    50    52
SMALL
GAST_HUCK
****
This file was generated by PARSER (from files_GN.cpp)

@<TRIPOS>ATOM
      1 C1         36.3063   -8.8229   -5.3575 C.3         1 OZZ       0.1189
      2 C2         36.1311   -7.8485   -6.5392 C.3         1 OZZ       0.1403
      3 C3         36.1154   -6.4435   -5.8902 C.3         1 OZZ       0.2027
      4 O4         36.9763   -6.6120   -4.7425 O.3         1 OZZ      -0.3296
      5 C5         36.7935   -7.9252   -4.1976 C.3         1 OZZ       0.1082
      6 C6         38.0448   -8.3870   -3.6142 C.2         1 OZZ      -0.0658
      7 N7         36.4787   -5.3798   -6.7798 N.pl3       1 OZZ      -0.2105
      8 O8         35.0849   -9.4596   -4.9818 O.3         1 OZZ      -0.3846
      9 O9         34.9494   -8.1315   -7.2924 O.3         1 OZZ      -0.3834
     10 C10        38.1533   -8.9584   -2.4002 C.2         1 OZZ      -0.0744
     11 C11        39.4030   -9.4128   -1.8005 C.3         1 OZZ       0.0473
     12 N12        40.4835   -9.6792   -2.7067 N.am        1 OZZ      -0.2765
     13 C13        40.5800  -10.7029   -3.5516 C.2         1 OZZ       0.2411
     14 C14        41.6171  -10.7756   -4.4891 C.ar        1 OZZ       0.2482
     15 C15        42.1182   -9.6177   -5.1393 C.ar        1 OZZ       0.3921
     16 C16        43.1452   -9.7206   -6.0989 C.ar        1 OZZ       0.3797
     17 C17        43.6990  -10.9729   -6.4087 C.ar        1 OZZ       0.1691
     18 C18        43.2305  -12.1549   -5.7893 C.ar        1 OZZ       0.2168
     19 C19        42.1826  -12.0295   -4.8406 C.ar        1 OZZ       0.1162
     20 N20        43.7679  -13.3680   -6.1142 N.2         1 OZZ      -0.1404
     21 O21        41.5866   -8.3879   -4.9089 O.3         1 OZZ      -0.1763
     22 O22        43.5944   -8.6260   -6.7609 O.3         1 OZZ      -0.1825
     23 O23        39.7474  -11.6018   -3.5057 O.2         1 OZZ      -0.3823
     24 O24        44.7208  -13.4992   -6.9989 O.2         1 OZZ      -0.4541
     25 O25        43.4023  -14.3973   -5.6099 O.2         1 OZZ      -0.4541
     26 C26        37.5184   -4.5669   -6.5187 C.2         1 OZZ       0.0592
     27 C27        37.8164   -3.5207   -7.3182 C.2         1 OZZ      -0.0116
     28 C28        37.0467   -3.2865   -8.4222 C.2         1 OZZ       0.0683
     29 C29        35.7271   -5.1389   -7.8699 C.2         1 OZZ       0.0592
     30 C30        35.9895   -4.1059   -8.6986 C.2         1 OZZ      -0.0116
     31 O31        37.3183   -2.3608   -9.1735 O.2         1 OZZ      -0.4519
     32 H1         37.0260   -9.6058   -5.6252 H           1 OZZ       0.0667
     33 H2         37.0001   -7.9252   -7.1985 H           1 OZZ       0.0678
     34 H3         35.1106   -6.2362   -5.5047 H           1 OZZ       0.0999
     35 H4         36.0123   -7.8507   -3.4348 H           1 OZZ       0.0749
     36 H5         38.8555   -8.3020   -4.1801 H           1 OZZ       0.0477
     37 H6         34.8407  -10.0186   -5.7427 H           1 OZZ       0.2102
     38 H7         35.0637   -9.0620   -7.5824 H           1 OZZ       0.2101
     39 H8         37.3376   -9.0306   -1.8345 H           1 OZZ       0.0470
     40 H9         39.2140  -10.3064   -1.1991 H           1 OZZ       0.0643
     41 H10        39.7323   -8.6293   -1.1139 H           1 OZZ       0.0643
     42 H11        41.2048   -9.0310   -2.7149 H           1 OZZ       0.1867
     43 H12        44.4407  -11.0134   -7.1109 H           1 OZZ       0.1086
     44 H13        41.8333  -12.8760   -4.3820 H           1 OZZ       0.1563
     45 H14        42.3303   -7.8488   -4.5661 H           1 OZZ       0.3540
     46 H15        42.8317   -8.3327   -7.3034 H           1 OZZ       0.3497
     47 H16        38.0951   -4.7027   -5.7210 H           1 OZZ       0.1185
     48 H17        38.5844   -2.9268   -7.0999 H           1 OZZ       0.0387
     49 H18        34.9479   -5.7149   -8.0940 H           1 OZZ       0.1185
     50 H19        35.4259   -3.9538   -9.5051 H           1 OZZ       0.0387
@<TRIPOS>BOND
     1     1     2   1
     2     1     5   1
     3     1     8   1
     4     2     3   1
     5     2     9   1
     6     3     4   1
     7     3     7   1
     8     4     5   1
     9     5     6   1
    10     6    10   2
    11     7    26   1
    12     7    29   1
    13    10    11   1
    14    11    12   1
    15    12    13  am
    16    13    14   1
    17    13    23   2
    18    14    15  ar
    19    14    19  ar
    20    15    16  ar
    21    15    21   1
    22    16    17  ar
    23    16    22   1
    24    17    18  ar
    25    18    19  ar
    26    18    20   1
    27    20    24   2
    28    20    25   2
    29    26    27   2
    30    27    28   1
    31    28    30   1
    32    28    31   2
    33    29    30   2
    34     1    32   1
    35     2    33   1
    36     3    34   1
    37     5    35   1
    38     6    36   1
    39     8    37   1
    40     9    38   1
    41    10    39   1
    42    11    40   1
    43    11    41   1
    44    12    42   1
    45    17    43   1
    46    19    44   1
    47    21    45   1
    48    22    46   1
    49    26    47   1
    50    27    48   1
    51    29    49   1
    52    30    50   1
@<TRIPOS>SUBSTRUCTURE
     1  OZZ      1

