@<TRIPOS>MOLECULE
3ozt_ligand_034
    50    52
SMALL
GAST_HUCK
****
This file was generated by PARSER (from files_GN.cpp)

@<TRIPOS>ATOM
      1 C1         36.7308   -8.9517   -5.6059 C.3         1 OZZ       0.1189
      2 C2         36.2421   -7.8010   -6.5108 C.3         1 OZZ       0.1403
      3 C3         36.2706   -6.5439   -5.5866 C.3         1 OZZ       0.2027
      4 O4         37.2180   -6.8676   -4.5432 O.3         1 OZZ      -0.3296
      5 C5         37.6425   -8.2293   -4.5886 C.3         1 OZZ       0.1082
      6 C6         39.0856   -8.2940   -4.8245 C.2         1 OZZ      -0.0658
      7 N7         36.5516   -5.2748   -6.1913 N.pl3       1 OZZ      -0.2105
      8 O8         35.6307   -9.5581   -4.9330 O.3         1 OZZ      -0.3846
      9 O9         34.9455   -8.0578   -7.0713 O.3         1 OZZ      -0.3834
     10 C10        39.7177   -7.7763   -5.8964 C.2         1 OZZ      -0.0744
     11 C11        41.1621   -7.8148   -6.0415 C.3         1 OZZ       0.0473
     12 N12        41.5807   -7.2653   -7.3003 N.am        1 OZZ      -0.2765
     13 C13        42.2512   -7.8973   -8.2531 C.2         1 OZZ       0.2411
     14 C14        42.4587   -7.3026   -9.4777 C.ar        1 OZZ       0.2482
     15 C15        41.7191   -7.6921  -10.6200 C.ar        1 OZZ       0.3921
     16 C16        41.9741   -7.0837  -11.8629 C.ar        1 OZZ       0.3797
     17 C17        42.9788   -6.1092  -11.9804 C.ar        1 OZZ       0.1691
     18 C18        43.7426   -5.6954  -10.8576 C.ar        1 OZZ       0.2168
     19 C19        43.4534   -6.3016   -9.6095 C.ar        1 OZZ       0.1162
     20 N20        44.7161   -4.7456  -10.9864 N.2         1 OZZ      -0.1404
     21 O21        40.7217   -8.6268  -10.5764 O.3         1 OZZ      -0.1763
     22 O22        41.2219   -7.4318  -12.9385 O.3         1 OZZ      -0.1825
     23 O23        42.7115   -9.0268   -8.0884 O.2         1 OZZ      -0.3823
     24 O24        45.0008   -4.1851  -12.1278 O.2         1 OZZ      -0.4541
     25 O25        45.3804   -4.3712  -10.0552 O.2         1 OZZ      -0.4541
     26 C26        37.1238   -4.3012   -5.4600 C.2         1 OZZ       0.0592
     27 C27        37.3966   -3.0920   -5.9849 C.2         1 OZZ      -0.0116
     28 C28        37.0478   -2.8359   -7.2780 C.2         1 OZZ       0.0683
     29 C29        36.1161   -4.9784   -7.4291 C.2         1 OZZ       0.0592
     30 C30        36.3675   -3.7767   -7.9949 C.2         1 OZZ      -0.0116
     31 O31        37.3168   -1.7570   -7.7846 O.2         1 OZZ      -0.4519
     32 H1         37.2605   -9.7050   -6.1884 H           1 OZZ       0.0667
     33 H2         36.9448   -7.6769   -7.3387 H           1 OZZ       0.0678
     34 H3         35.2908   -6.4673   -5.0977 H           1 OZZ       0.0999
     35 H4         37.4603   -8.6463   -3.5910 H           1 OZZ       0.0749
     36 H5         39.6446   -8.7133   -4.1177 H           1 OZZ       0.0477
     37 H6         35.9657  -10.4393   -4.6624 H           1 OZZ       0.2102
     38 H7         34.9409   -9.0255   -7.2261 H           1 OZZ       0.2101
     39 H8         39.1766   -7.3456   -6.6098 H           1 OZZ       0.0470
     40 H9         41.5150   -8.8459   -5.9159 H           1 OZZ       0.0643
     41 H10        41.6145   -7.2114   -5.2468 H           1 OZZ       0.0643
     42 H11        41.2675   -6.3730   -7.5014 H           1 OZZ       0.1867
     43 H12        43.1477   -5.6926  -12.8970 H           1 OZZ       0.1086
     44 H13        43.9933   -6.0309   -8.7832 H           1 OZZ       0.1563
     45 H14        41.0055   -9.3090   -9.9237 H           1 OZZ       0.3540
     46 H15        41.8353   -7.7357  -13.6390 H           1 OZZ       0.3497
     47 H16        37.3442   -4.4316   -4.4985 H           1 OZZ       0.1185
     48 H17        37.8261   -2.3841   -5.4301 H           1 OZZ       0.0387
     49 H18        35.5925   -5.6340   -7.9577 H           1 OZZ       0.1185
     50 H19        36.0417   -3.5875   -8.9155 H           1 OZZ       0.0387
@<TRIPOS>BOND
     1     1     2   1
     2     1     5   1
     3     1     8   1
     4     2     3   1
     5     2     9   1
     6     3     4   1
     7     3     7   1
     8     4     5   1
     9     5     6   1
    10     6    10   2
    11     7    26   1
    12     7    29   1
    13    10    11   1
    14    11    12   1
    15    12    13  am
    16    13    14   1
    17    13    23   2
    18    14    15  ar
    19    14    19  ar
    20    15    16  ar
    21    15    21   1
    22    16    17  ar
    23    16    22   1
    24    17    18  ar
    25    18    19  ar
    26    18    20   1
    27    20    24   2
    28    20    25   2
    29    26    27   2
    30    27    28   1
    31    28    30   1
    32    28    31   2
    33    29    30   2
    34     1    32   1
    35     2    33   1
    36     3    34   1
    37     5    35   1
    38     6    36   1
    39     8    37   1
    40     9    38   1
    41    10    39   1
    42    11    40   1
    43    11    41   1
    44    12    42   1
    45    17    43   1
    46    19    44   1
    47    21    45   1
    48    22    46   1
    49    26    47   1
    50    27    48   1
    51    29    49   1
    52    30    50   1
@<TRIPOS>SUBSTRUCTURE
     1  OZZ      1

