@<TRIPOS>MOLECULE
3pe2_ligand_048
    37    40
SMALL
GAST_HUCK
****
This file was generated by PARSER (from files_GN.cpp)

@<TRIPOS>ATOM
      1 N1         24.6930  -17.1432   17.3724 N.ar        1 E1B      -0.2566
      2 C2         24.1881  -18.2636   17.9359 C.ar        1 E1B       0.0922
      3 N3         25.0342  -19.1936   18.4344 N.ar        1 E1B      -0.2517
      4 C4         26.3860  -19.0513   18.3921 C.ar        1 E1B       0.1245
      5 C5         26.9534  -17.8883   17.7883 C.ar        1 E1B       0.0502
      6 C6         26.0304  -16.9344   17.2897 C.ar        1 E1B       0.0434
      7 CAA        22.6388  -23.9336   16.5795 C.1         1 E1B      -0.1140
      8 OAB        33.4270  -18.3508   18.4527 O.co2       1 E1B      -0.5601
      9 OAC        33.3147  -16.5533   17.0193 O.co2       1 E1B      -0.5601
     10 CAD        23.1516  -23.4284   17.5314 C.1         1 E1B      -0.0725
     11 CAE        23.6389  -22.2249   20.9211 C.ar        1 E1B      -0.0695
     12 CAG        23.0232  -22.8067   19.7979 C.ar        1 E1B      -0.0574
     13 CAH        24.9437  -21.7116   20.8257 C.ar        1 E1B      -0.0371
     14 CAI        30.4536  -16.5858   17.1191 C.ar        1 E1B      -0.0469
     15 CAJ        29.0484  -16.6526   17.1343 C.ar        1 E1B      -0.0482
     16 CAL        25.0224  -22.3520   18.4758 C.ar        1 E1B      -0.0223
     17 CAM        30.5733  -18.6901   18.3141 C.ar        1 E1B      -0.0324
     18 NAP        28.5735  -19.8470   18.8756 N.ar        1 E1B      -0.2773
     19 NAQ        26.8845  -21.2293   19.5029 N.pl3       1 E1B      -0.2490
     20 CAR        32.6586  -17.5142   17.7112 C.2         1 E1B       0.0639
     21 CAS        23.7164  -22.8795   18.5710 C.ar        1 E1B       0.0156
     22 CAT        25.6351  -21.7525   19.5983 C.ar        1 E1B       0.0678
     23 CAU        31.2398  -17.5960   17.7165 C.ar        1 E1B       0.0111
     24 CAV        27.2361  -20.0494   18.9327 C.ar        1 E1B       0.1682
     25 CAW        29.1657  -18.7666   18.3145 C.ar        1 E1B       0.0354
     26 CAY        28.3715  -17.7453   17.7288 C.ar        1 E1B       0.0121
     27 H1         23.1776  -18.4072   17.9791 H           1 E1B       0.1131
     28 H2         26.3310  -16.0658   16.8528 H           1 E1B       0.0992
     29 H3         22.2398  -24.3245   15.8458 H           1 E1B       0.1233
     30 H4         23.1359  -22.1757   21.8086 H           1 E1B       0.0590
     31 H5         22.0729  -23.1780   19.8890 H           1 E1B       0.0537
     32 H6         25.3746  -21.2796   21.6475 H           1 E1B       0.0543
     33 H7         30.8940  -15.7750   16.6769 H           1 E1B       0.0637
     34 H8         28.5418  -15.8878   16.6896 H           1 E1B       0.0642
     35 H9         25.5353  -22.3869   17.5889 H           1 E1B       0.0550
     36 H10        31.1104  -19.4461   18.7476 H           1 E1B       0.0650
     37 H11        27.6103  -21.8022   19.7983 H           1 E1B       0.2200
@<TRIPOS>BOND
     1     1     2  ar
     2     6     1  ar
     3     3     2  ar
     4     4     3  ar
     5     5     4  ar
     6    24     4  ar
     7     5     6  ar
     8    26     5  ar
     9    10     7   3
    10    20     8  ar
    11    20     9  ar
    12    21    10   1
    13    11    12  ar
    14    13    11  ar
    15    21    12  ar
    16    22    13  ar
    17    14    15  ar
    18    23    14  ar
    19    15    26  ar
    20    16    21  ar
    21    22    16  ar
    22    23    17  ar
    23    17    25  ar
    24    18    24  ar
    25    25    18  ar
    26    19    22   1
    27    24    19   1
    28    20    23   1
    29    25    26  ar
    30     2    27   1
    31     6    28   1
    32     7    29   1
    33    11    30   1
    34    12    31   1
    35    13    32   1
    36    14    33   1
    37    15    34   1
    38    16    35   1
    39    17    36   1
    40    19    37   1
@<TRIPOS>SUBSTRUCTURE
     1  E1B      2

