@<TRIPOS>MOLECULE
3pe2_ligand_021
    37    40
SMALL
GAST_HUCK
****
This file was generated by PARSER (from files_GN.cpp)

@<TRIPOS>ATOM
      1 N1         17.1147  -36.3875   23.0130 N.ar        1 E1B      -0.2566
      2 C2         17.0490  -35.0365   23.0102 C.ar        1 E1B       0.0922
      3 N3         18.0691  -34.3192   22.4883 N.ar        1 E1B      -0.2517
      4 C4         19.1758  -34.9088   21.9649 C.ar        1 E1B       0.1245
      5 C5         19.2945  -36.3329   21.9630 C.ar        1 E1B       0.0502
      6 C6         18.1863  -37.0426   22.5034 C.ar        1 E1B       0.0434
      7 CAA        23.0135  -30.6544   16.9084 C.1         1 E1B      -0.1140
      8 OAB        24.3799  -39.8688   19.9343 O.co2       1 E1B      -0.5601
      9 OAC        25.2203  -37.7197   19.7159 O.co2       1 E1B      -0.5601
     10 CAD        22.7178  -30.7233   18.0665 C.1         1 E1B      -0.0725
     11 CAE        22.6041  -30.0378   21.6320 C.ar        1 E1B      -0.0695
     12 CAG        22.9722  -29.9442   20.2752 C.ar        1 E1B      -0.0574
     13 CAH        21.6507  -30.9896   22.0370 C.ar        1 E1B      -0.0371
     14 CAI        21.9703  -38.8377   21.0448 C.ar        1 E1B      -0.0469
     15 CAJ        20.7527  -38.3225   21.5061 C.ar        1 E1B      -0.0482
     16 CAL        21.4417  -31.7696   19.7393 C.ar        1 E1B      -0.0223
     17 CAM        22.6586  -36.6186   20.3545 C.ar        1 E1B      -0.0324
     18 NAP        21.2948  -34.7423   20.9005 N.ar        1 E1B      -0.2773
     19 NAQ        20.1509  -32.7664   21.5293 N.pl3       1 E1B      -0.2490
     20 CAR        24.1711  -38.5270   20.0150 C.2         1 E1B       0.0639
     21 CAS        22.3877  -30.8086   19.3207 C.ar        1 E1B       0.0156
     22 CAT        21.0781  -31.8725   21.0962 C.ar        1 E1B       0.0678
     23 CAU        22.9345  -37.9969   20.4550 C.ar        1 E1B       0.0111
     24 CAV        20.2155  -34.1175   21.4334 C.ar        1 E1B       0.1682
     25 CAW        21.4688  -36.0870   20.8836 C.ar        1 E1B       0.0354
     26 CAY        20.4787  -36.9363   21.4462 C.ar        1 E1B       0.0121
     27 H1         16.2365  -34.5630   23.4028 H           1 E1B       0.1131
     28 H2         18.1602  -38.0620   22.5287 H           1 E1B       0.0992
     29 H3         23.2458  -30.6050   16.0145 H           1 E1B       0.1233
     30 H4         23.0242  -29.4077   22.3169 H           1 E1B       0.0590
     31 H5         23.6657  -29.2415   19.9958 H           1 E1B       0.0537
     32 H6         21.3971  -31.0453   23.0293 H           1 E1B       0.0543
     33 H7         22.1470  -39.8443   21.1348 H           1 E1B       0.0637
     34 H8         20.0957  -38.9758   21.9326 H           1 E1B       0.0642
     35 H9         20.9967  -32.3879   19.0563 H           1 E1B       0.0550
     36 H10        23.3563  -35.9836   19.9504 H           1 E1B       0.0650
     37 H11        19.4117  -32.4020   22.0607 H           1 E1B       0.2200
@<TRIPOS>BOND
     1     1     2  ar
     2     6     1  ar
     3     3     2  ar
     4     4     3  ar
     5     5     4  ar
     6    24     4  ar
     7     5     6  ar
     8    26     5  ar
     9    10     7   3
    10    20     8  ar
    11    20     9  ar
    12    21    10   1
    13    11    12  ar
    14    13    11  ar
    15    21    12  ar
    16    22    13  ar
    17    14    15  ar
    18    23    14  ar
    19    15    26  ar
    20    16    21  ar
    21    22    16  ar
    22    23    17  ar
    23    17    25  ar
    24    18    24  ar
    25    25    18  ar
    26    19    22   1
    27    24    19   1
    28    20    23   1
    29    25    26  ar
    30     2    27   1
    31     6    28   1
    32     7    29   1
    33    11    30   1
    34    12    31   1
    35    13    32   1
    36    14    33   1
    37    15    34   1
    38    16    35   1
    39    17    36   1
    40    19    37   1
@<TRIPOS>SUBSTRUCTURE
     1  E1B      2

