@<TRIPOS>MOLECULE
3pe2_ligand_052
    37    40
SMALL
GAST_HUCK
****
This file was generated by PARSER (from files_GN.cpp)

@<TRIPOS>ATOM
      1 N1         18.2397  -34.4027   21.7744 N.ar        1 E1B      -0.2566
      2 C2         18.0935  -33.4643   20.8125 C.ar        1 E1B       0.0922
      3 N3         18.1480  -32.1517   21.1414 N.ar        1 E1B      -0.2517
      4 C4         18.3469  -31.7381   22.4200 C.ar        1 E1B       0.1245
      5 C5         18.5099  -32.6967   23.4647 C.ar        1 E1B       0.0502
      6 C6         18.4410  -34.0577   23.0684 C.ar        1 E1B       0.0434
      7 CAA        21.3113  -24.5300   21.1514 C.1         1 E1B      -0.1140
      8 OAB        19.7183  -29.3717   28.9268 O.co2       1 E1B      -0.5601
      9 OAC        19.3860  -31.4676   29.8315 O.co2       1 E1B      -0.5601
     10 CAD        20.3552  -25.1929   21.4180 C.1         1 E1B      -0.0725
     11 CAE        16.9916  -26.0732   22.4617 C.ar        1 E1B      -0.0695
     12 CAG        18.1194  -25.2933   22.1544 C.ar        1 E1B      -0.0574
     13 CAH        17.0513  -27.4724   22.3524 C.ar        1 E1B      -0.0371
     14 CAI        19.1319  -32.5975   27.1965 C.ar        1 E1B      -0.0469
     15 CAJ        18.9074  -33.1138   25.9082 C.ar        1 E1B      -0.0482
     16 CAL        19.3494  -27.3174   21.5593 C.ar        1 E1B      -0.0223
     17 CAM        19.0258  -30.3449   26.3224 C.ar        1 E1B      -0.0324
     18 NAP        18.6225  -29.9855   24.0068 N.ar        1 E1B      -0.2773
     19 NAQ        18.2530  -29.4469   21.7338 N.pl3       1 E1B      -0.2490
     20 CAR        19.4506  -30.6893   28.7192 C.2         1 E1B       0.0639
     21 CAS        19.3116  -25.9139   21.7084 C.ar        1 E1B       0.0156
     22 CAT        18.2283  -28.1020   21.8987 C.ar        1 E1B       0.0678
     23 CAU        19.2067  -31.2058   27.4230 C.ar        1 E1B       0.0111
     24 CAV        18.3973  -30.3615   22.7228 C.ar        1 E1B       0.1682
     25 CAW        18.7902  -30.8527   25.0331 C.ar        1 E1B       0.0354
     26 CAY        18.7306  -32.2516   24.7989 C.ar        1 E1B       0.0121
     27 H1         17.9453  -33.7438   19.8393 H           1 E1B       0.1131
     28 H2         18.5402  -34.8219   23.7373 H           1 E1B       0.0992
     29 H3         22.0610  -24.0228   20.9427 H           1 E1B       0.1233
     30 H4         16.1277  -25.6256   22.7786 H           1 E1B       0.0590
     31 H5         18.0558  -24.2754   22.2480 H           1 E1B       0.0537
     32 H6         16.2169  -28.0373   22.5739 H           1 E1B       0.0543
     33 H7         19.2480  -33.2701   27.9732 H           1 E1B       0.0637
     34 H8         18.8771  -34.1321   25.8062 H           1 E1B       0.0642
     35 H9         20.2012  -27.7806   21.2212 H           1 E1B       0.0550
     36 H10        19.0594  -29.3302   26.4497 H           1 E1B       0.0650
     37 H11        18.1602  -29.7855   20.8222 H           1 E1B       0.2200
@<TRIPOS>BOND
     1     1     2  ar
     2     6     1  ar
     3     3     2  ar
     4     4     3  ar
     5     5     4  ar
     6    24     4  ar
     7     5     6  ar
     8    26     5  ar
     9    10     7   3
    10    20     8  ar
    11    20     9  ar
    12    21    10   1
    13    11    12  ar
    14    13    11  ar
    15    21    12  ar
    16    22    13  ar
    17    14    15  ar
    18    23    14  ar
    19    15    26  ar
    20    16    21  ar
    21    22    16  ar
    22    23    17  ar
    23    17    25  ar
    24    18    24  ar
    25    25    18  ar
    26    19    22   1
    27    24    19   1
    28    20    23   1
    29    25    26  ar
    30     2    27   1
    31     6    28   1
    32     7    29   1
    33    11    30   1
    34    12    31   1
    35    13    32   1
    36    14    33   1
    37    15    34   1
    38    16    35   1
    39    17    36   1
    40    19    37   1
@<TRIPOS>SUBSTRUCTURE
     1  E1B      2

