@<TRIPOS>MOLECULE
3pe2_ligand_044
    37    40
SMALL
GAST_HUCK
****
This file was generated by PARSER (from files_GN.cpp)

@<TRIPOS>ATOM
      1 N1         23.8486  -34.4466   19.1651 N.ar        1 E1B      -0.2566
      2 C2         23.5541  -33.9746   17.9437 C.ar        1 E1B       0.0922
      3 N3         22.3342  -33.4523   17.7685 N.ar        1 E1B      -0.2517
      4 C4         21.3856  -33.3622   18.7293 C.ar        1 E1B       0.1245
      5 C5         21.6677  -33.8551   20.0283 C.ar        1 E1B       0.0502
      6 C6         22.9591  -34.4040   20.1903 C.ar        1 E1B       0.0434
      7 CAA        23.6473  -28.8346   14.5631 C.1         1 E1B      -0.1140
      8 OAB        17.2399  -34.4467   24.7785 O.co2       1 E1B      -0.5601
      9 OAC        16.8148  -32.2863   24.0760 O.co2       1 E1B      -0.5601
     10 CAD        23.0105  -29.8258   14.7104 C.1         1 E1B      -0.0725
     11 CAE        21.6217  -33.1225   14.0652 C.ar        1 E1B      -0.0695
     12 CAG        22.3896  -31.9545   13.9079 C.ar        1 E1B      -0.0574
     13 CAH        20.7491  -33.2475   15.1638 C.ar        1 E1B      -0.0371
     14 CAI        19.8085  -34.0930   23.3239 C.ar        1 E1B      -0.0469
     15 CAJ        20.8474  -34.2014   22.3782 C.ar        1 E1B      -0.0482
     16 CAL        21.4314  -31.0478   15.9615 C.ar        1 E1B      -0.0223
     17 CAM        18.3806  -33.0836   21.6488 C.ar        1 E1B      -0.0324
     18 NAP        19.2006  -32.7497   19.4152 N.ar        1 E1B      -0.2773
     19 NAQ        19.7956  -32.3142   17.1865 N.pl3       1 E1B      -0.2490
     20 CAR        17.5183  -33.4306   23.9284 C.2         1 E1B       0.0639
     21 CAS        22.3070  -30.9159   14.8594 C.ar        1 E1B       0.0156
     22 CAT        20.6069  -32.1902   16.0946 C.ar        1 E1B       0.0678
     23 CAU        18.5594  -33.5339   22.9775 C.ar        1 E1B       0.0111
     24 CAV        20.1305  -32.7900   18.4220 C.ar        1 E1B       0.1682
     25 CAW        19.4101  -33.1993   20.6843 C.ar        1 E1B       0.0354
     26 CAY        20.6680  -33.7677   21.0397 C.ar        1 E1B       0.0121
     27 H1         24.2113  -34.0043   17.1724 H           1 E1B       0.1131
     28 H2         23.2667  -34.7884   21.0775 H           1 E1B       0.0992
     29 H3         24.1423  -28.0610   14.4460 H           1 E1B       0.1233
     30 H4         21.6987  -33.8760   13.3757 H           1 E1B       0.0590
     31 H5         23.0102  -31.8720   13.0951 H           1 E1B       0.0537
     32 H6         20.2209  -34.1178   15.2736 H           1 E1B       0.0543
     33 H7         19.9812  -34.4101   24.2804 H           1 E1B       0.0637
     34 H8         21.7329  -34.6013   22.6916 H           1 E1B       0.0642
     35 H9         21.3719  -30.3147   16.6704 H           1 E1B       0.0550
     36 H10        17.4868  -32.6831   21.3577 H           1 E1B       0.0650
     37 H11        18.8790  -32.0262   17.0632 H           1 E1B       0.2200
@<TRIPOS>BOND
     1     1     2  ar
     2     6     1  ar
     3     3     2  ar
     4     4     3  ar
     5     5     4  ar
     6    24     4  ar
     7     5     6  ar
     8    26     5  ar
     9    10     7   3
    10    20     8  ar
    11    20     9  ar
    12    21    10   1
    13    11    12  ar
    14    13    11  ar
    15    21    12  ar
    16    22    13  ar
    17    14    15  ar
    18    23    14  ar
    19    15    26  ar
    20    16    21  ar
    21    22    16  ar
    22    23    17  ar
    23    17    25  ar
    24    18    24  ar
    25    25    18  ar
    26    19    22   1
    27    24    19   1
    28    20    23   1
    29    25    26  ar
    30     2    27   1
    31     6    28   1
    32     7    29   1
    33    11    30   1
    34    12    31   1
    35    13    32   1
    36    14    33   1
    37    15    34   1
    38    16    35   1
    39    17    36   1
    40    19    37   1
@<TRIPOS>SUBSTRUCTURE
     1  E1B      2

