@<TRIPOS>MOLECULE
3pe2_ligand_035
    37    40
SMALL
GAST_HUCK
****
This file was generated by PARSER (from files_GN.cpp)

@<TRIPOS>ATOM
      1 N1         23.2105  -28.8382   13.0187 N.ar        1 E1B      -0.2566
      2 C2         23.2766  -28.2391   11.8088 C.ar        1 E1B       0.0922
      3 N3         23.3542  -26.8896   11.7415 N.ar        1 E1B      -0.2517
      4 C4         23.3646  -26.1096   12.8541 C.ar        1 E1B       0.1245
      5 C5         23.2929  -26.7060   14.1483 C.ar        1 E1B       0.0502
      6 C6         23.2141  -28.1221   14.1671 C.ar        1 E1B       0.0434
      7 CAA        20.9910  -19.0368   10.2362 C.1         1 E1B      -0.1140
      8 OAB        24.3417  -22.2806   18.8119 O.co2       1 E1B      -0.5601
      9 OAC        22.3904  -23.2614   19.5720 O.co2       1 E1B      -0.5601
     10 CAD        21.8984  -19.7816   10.4728 C.1         1 E1B      -0.0725
     11 CAE        25.3046  -20.9532   10.8832 C.ar        1 E1B      -0.0695
     12 CAG        24.2182  -20.0980   10.6242 C.ar        1 E1B      -0.0574
     13 CAH        25.0794  -22.2913   11.2429 C.ar        1 E1B      -0.0371
     14 CAI        23.2288  -25.4734   17.7335 C.ar        1 E1B      -0.0469
     15 CAJ        23.2271  -26.3547   16.6390 C.ar        1 E1B      -0.0482
     16 CAL        22.6705  -21.9387   11.0501 C.ar        1 E1B      -0.0223
     17 CAM        23.5098  -23.5943   16.2245 C.ar        1 E1B      -0.0324
     18 NAP        23.5279  -23.9553   13.8723 N.ar        1 E1B      -0.2773
     19 NAQ        23.5550  -24.1174   11.5195 N.pl3       1 E1B      -0.2490
     20 CAR        23.3670  -23.1999   18.6426 C.2         1 E1B       0.0639
     21 CAS        22.8936  -20.5814   10.7212 C.ar        1 E1B       0.0156
     22 CAT        23.7630  -22.7937   11.3097 C.ar        1 E1B       0.0678
     23 CAU        23.3759  -24.0829   17.5454 C.ar        1 E1B       0.0111
     24 CAV        23.4777  -24.7046   12.7384 C.ar        1 E1B       0.1682
     25 CAW        23.4550  -24.4767   15.1260 C.ar        1 E1B       0.0354
     26 CAY        23.3189  -25.8835   15.3052 C.ar        1 E1B       0.0121
     27 H1         23.2816  -28.8006   10.9596 H           1 E1B       0.1131
     28 H2         23.1690  -28.6451   15.0389 H           1 E1B       0.0992
     29 H3         20.3016  -18.4573   10.0530 H           1 E1B       0.1233
     30 H4         26.2635  -20.6049   10.7835 H           1 E1B       0.0590
     31 H5         24.4057  -19.1254   10.3540 H           1 E1B       0.0537
     32 H6         25.8772  -22.9033   11.4268 H           1 E1B       0.0543
     33 H7         23.1440  -25.8614   18.6727 H           1 E1B       0.0637
     34 H8         23.1446  -27.3536   16.8368 H           1 E1B       0.0642
     35 H9         21.7205  -22.3152   11.0876 H           1 E1B       0.0550
     36 H10        23.6086  -22.5862   16.0520 H           1 E1B       0.0650
     37 H11        23.4975  -24.6853   10.7438 H           1 E1B       0.2200
@<TRIPOS>BOND
     1     1     2  ar
     2     6     1  ar
     3     3     2  ar
     4     4     3  ar
     5     5     4  ar
     6    24     4  ar
     7     5     6  ar
     8    26     5  ar
     9    10     7   3
    10    20     8  ar
    11    20     9  ar
    12    21    10   1
    13    11    12  ar
    14    13    11  ar
    15    21    12  ar
    16    22    13  ar
    17    14    15  ar
    18    23    14  ar
    19    15    26  ar
    20    16    21  ar
    21    22    16  ar
    22    23    17  ar
    23    17    25  ar
    24    18    24  ar
    25    25    18  ar
    26    19    22   1
    27    24    19   1
    28    20    23   1
    29    25    26  ar
    30     2    27   1
    31     6    28   1
    32     7    29   1
    33    11    30   1
    34    12    31   1
    35    13    32   1
    36    14    33   1
    37    15    34   1
    38    16    35   1
    39    17    36   1
    40    19    37   1
@<TRIPOS>SUBSTRUCTURE
     1  E1B      2

