@<TRIPOS>MOLECULE
3pe2_ligand_059
    37    40
SMALL
GAST_HUCK
****
This file was generated by PARSER (from files_GN.cpp)

@<TRIPOS>ATOM
      1 N1         24.1323  -32.9000   21.8573 N.ar        1 E1B      -0.2566
      2 C2         23.7775  -34.1998   21.9494 C.ar        1 E1B       0.0922
      3 N3         23.1996  -34.7942   20.8917 N.ar        1 E1B      -0.2517
      4 C4         22.9538  -34.1371   19.7314 C.ar        1 E1B       0.1245
      5 C5         23.2693  -32.7514   19.6158 C.ar        1 E1B       0.0502
      6 C6         23.9026  -32.1688   20.7416 C.ar        1 E1B       0.0434
      7 CAA        25.8420  -39.6921   21.0362 C.1         1 E1B      -0.1140
      8 OAB        21.4381  -28.8484   14.7380 O.co2       1 E1B      -0.5601
      9 OAC        22.0066  -30.7648   13.5795 O.co2       1 E1B      -0.5601
     10 CAD        24.7570  -39.2156   20.8582 C.1         1 E1B      -0.0725
     11 CAE        21.2054  -38.5696   21.2522 C.ar        1 E1B      -0.0695
     12 CAG        22.4732  -39.1548   21.4228 C.ar        1 E1B      -0.0574
     13 CAH        21.0248  -37.5503   20.3028 C.ar        1 E1B      -0.0371
     14 CAI        22.7165  -30.0266   17.0478 C.ar        1 E1B      -0.0469
     15 CAJ        23.0825  -30.6532   18.2499 C.ar        1 E1B      -0.0482
     16 CAL        23.4039  -37.6304   19.7695 C.ar        1 E1B      -0.0223
     17 CAM        22.0218  -32.1695   16.1372 C.ar        1 E1B      -0.0324
     18 NAP        22.0927  -34.1152   17.5154 N.ar        1 E1B      -0.2773
     19 NAQ        21.9367  -36.1001   18.6350 N.pl3       1 E1B      -0.2490
     20 CAR        21.8370  -30.1402   14.7649 C.2         1 E1B       0.0639
     21 CAS        23.5799  -38.6917   20.6795 C.ar        1 E1B       0.0156
     22 CAT        22.1264  -37.0634   19.5724 C.ar        1 E1B       0.0678
     23 CAU        22.1920  -30.7769   15.9731 C.ar        1 E1B       0.0111
     24 CAV        22.3471  -34.8105   18.6484 C.ar        1 E1B       0.1682
     25 CAW        22.3575  -32.7927   17.3546 C.ar        1 E1B       0.0354
     26 CAY        22.9260  -32.0519   18.4288 C.ar        1 E1B       0.0121
     27 H1         23.9379  -34.7211   22.8068 H           1 E1B       0.1131
     28 H2         24.1958  -31.1930   20.7567 H           1 E1B       0.0992
     29 H3         26.6760  -40.0529   21.1752 H           1 E1B       0.1233
     30 H4         20.4118  -38.8904   21.8119 H           1 E1B       0.0590
     31 H5         22.5846  -39.9136   22.0990 H           1 E1B       0.0537
     32 H6         20.0925  -37.1549   20.1599 H           1 E1B       0.0543
     33 H7         22.8586  -29.0163   16.9600 H           1 E1B       0.0637
     34 H8         23.4483  -30.0615   18.9950 H           1 E1B       0.0642
     35 H9         24.2030  -37.2686   19.2422 H           1 E1B       0.0550
     36 H10        21.6189  -32.7316   15.3795 H           1 E1B       0.0650
     37 H11        21.4081  -36.3636   17.8692 H           1 E1B       0.2200
@<TRIPOS>BOND
     1     1     2  ar
     2     6     1  ar
     3     3     2  ar
     4     4     3  ar
     5     5     4  ar
     6    24     4  ar
     7     5     6  ar
     8    26     5  ar
     9    10     7   3
    10    20     8  ar
    11    20     9  ar
    12    21    10   1
    13    11    12  ar
    14    13    11  ar
    15    21    12  ar
    16    22    13  ar
    17    14    15  ar
    18    23    14  ar
    19    15    26  ar
    20    16    21  ar
    21    22    16  ar
    22    23    17  ar
    23    17    25  ar
    24    18    24  ar
    25    25    18  ar
    26    19    22   1
    27    24    19   1
    28    20    23   1
    29    25    26  ar
    30     2    27   1
    31     6    28   1
    32     7    29   1
    33    11    30   1
    34    12    31   1
    35    13    32   1
    36    14    33   1
    37    15    34   1
    38    16    35   1
    39    17    36   1
    40    19    37   1
@<TRIPOS>SUBSTRUCTURE
     1  E1B      2

