@<TRIPOS>MOLECULE
3pe2_ligand_030
    37    40
SMALL
GAST_HUCK
****
This file was generated by PARSER (from files_GN.cpp)

@<TRIPOS>ATOM
      1 N1         21.7871  -34.4650   13.4053 N.ar        1 E1B      -0.2566
      2 C2         21.9463  -33.5127   12.4643 C.ar        1 E1B       0.0922
      3 N3         21.9861  -32.2206   12.8561 N.ar        1 E1B      -0.2517
      4 C4         21.8909  -31.8175   14.1468 C.ar        1 E1B       0.1245
      5 C5         21.7762  -32.8030   15.1707 C.ar        1 E1B       0.0502
      6 C6         21.7254  -34.1507   14.7235 C.ar        1 E1B       0.0434
      7 CAA        25.8709  -28.8438    9.3932 C.1         1 E1B      -0.1140
      8 OAB        20.3277  -31.0346   21.1864 O.co2       1 E1B      -0.5601
      9 OAC        22.6311  -30.8362   21.2580 O.co2       1 E1B      -0.5601
     10 CAD        24.7814  -29.0353    9.8504 C.1         1 E1B      -0.0725
     11 CAE        21.2699  -29.9267   10.0926 C.ar        1 E1B      -0.0695
     12 CAG        22.5396  -29.6794    9.5360 C.ar        1 E1B      -0.0574
     13 CAH        21.0676  -29.7738   11.4754 C.ar        1 E1B      -0.0371
     14 CAI        21.5646  -32.8115   18.9563 C.ar        1 E1B      -0.0469
     15 CAJ        21.6347  -33.2891   17.6342 C.ar        1 E1B      -0.0482
     16 CAL        23.3956  -29.0976   11.7469 C.ar        1 E1B      -0.0223
     17 CAM        21.6812  -30.5226   18.1377 C.ar        1 E1B      -0.0324
     18 NAP        21.8318  -30.1079   15.8016 N.ar        1 E1B      -0.2773
     19 NAQ        21.9854  -29.3652   13.6625 N.pl3       1 E1B      -0.2490
     20 CAR        21.4987  -30.9330   20.5264 C.2         1 E1B       0.0639
     21 CAS        23.6037  -29.2535   10.3610 C.ar        1 E1B       0.0156
     22 CAT        22.1350  -29.3873   12.3095 C.ar        1 E1B       0.0678
     23 CAU        21.5800  -31.4235   19.2136 C.ar        1 E1B       0.0111
     24 CAV        21.9023  -30.4379   14.4906 C.ar        1 E1B       0.1682
     25 CAW        21.7456  -31.0051   16.8174 C.ar        1 E1B       0.0354
     26 CAY        21.7168  -32.3998   16.5342 C.ar        1 E1B       0.0121
     27 H1         22.0001  -33.7505   11.4709 H           1 E1B       0.1131
     28 H2         21.6130  -34.9223   15.3674 H           1 E1B       0.0992
     29 H3         26.7107  -28.7001    9.0451 H           1 E1B       0.1233
     30 H4         20.5028  -30.2429    9.4961 H           1 E1B       0.0590
     31 H5         22.6712  -29.8101    8.5293 H           1 E1B       0.0537
     32 H6         20.1582  -30.0119   11.8782 H           1 E1B       0.0543
     33 H7         21.4940  -33.4808   19.7274 H           1 E1B       0.0637
     34 H8         21.6302  -34.3017   17.4978 H           1 E1B       0.0642
     35 H9         24.1668  -28.8125   12.3632 H           1 E1B       0.0550
     36 H10        21.7094  -29.5105   18.3079 H           1 E1B       0.0650
     37 H11        22.0700  -28.4988   14.0860 H           1 E1B       0.2200
@<TRIPOS>BOND
     1     1     2  ar
     2     6     1  ar
     3     3     2  ar
     4     4     3  ar
     5     5     4  ar
     6    24     4  ar
     7     5     6  ar
     8    26     5  ar
     9    10     7   3
    10    20     8  ar
    11    20     9  ar
    12    21    10   1
    13    11    12  ar
    14    13    11  ar
    15    21    12  ar
    16    22    13  ar
    17    14    15  ar
    18    23    14  ar
    19    15    26  ar
    20    16    21  ar
    21    22    16  ar
    22    23    17  ar
    23    17    25  ar
    24    18    24  ar
    25    25    18  ar
    26    19    22   1
    27    24    19   1
    28    20    23   1
    29    25    26  ar
    30     2    27   1
    31     6    28   1
    32     7    29   1
    33    11    30   1
    34    12    31   1
    35    13    32   1
    36    14    33   1
    37    15    34   1
    38    16    35   1
    39    17    36   1
    40    19    37   1
@<TRIPOS>SUBSTRUCTURE
     1  E1B      2

