@<TRIPOS>MOLECULE
3pe2_ligand_034
    37    40
SMALL
GAST_HUCK
****
This file was generated by PARSER (from files_GN.cpp)

@<TRIPOS>ATOM
      1 N1         21.3762  -33.4194   15.3636 N.ar        1 E1B      -0.2566
      2 C2         21.6381  -32.4827   14.4216 C.ar        1 E1B       0.0922
      3 N3         21.9419  -31.2184   14.8072 N.ar        1 E1B      -0.2517
      4 C4         22.0028  -30.8459   16.1159 C.ar        1 E1B       0.1245
      5 C5         21.7159  -31.8034   17.1352 C.ar        1 E1B       0.0502
      6 C6         21.4110  -33.1124   16.6849 C.ar        1 E1B       0.0434
      7 CAA        24.4956  -30.9542   10.7301 C.1         1 E1B      -0.1140
      8 OAB        21.1453  -30.5668   23.5390 O.co2       1 E1B      -0.5601
      9 OAC        22.4653  -28.7945   22.8784 O.co2       1 E1B      -0.5601
     10 CAD        23.9729  -30.1037   11.3849 C.1         1 E1B      -0.0725
     11 CAE        21.9877  -27.2002   12.2749 C.ar        1 E1B      -0.0695
     12 CAG        22.6594  -28.1554   11.4902 C.ar        1 E1B      -0.0574
     13 CAH        21.9806  -27.3231   13.6768 C.ar        1 E1B      -0.0371
     14 CAI        21.4909  -31.7797   20.9266 C.ar        1 E1B      -0.0469
     15 CAJ        21.4686  -32.2610   19.6061 C.ar        1 E1B      -0.0482
     16 CAL        23.4181  -29.2799   13.5197 C.ar        1 E1B      -0.0223
     17 CAM        22.1089  -29.5799   20.1192 C.ar        1 E1B      -0.0324
     18 NAP        22.3379  -29.1942   17.7848 N.ar        1 E1B      -0.2773
     19 NAQ        22.6057  -28.4524   15.6629 N.pl3       1 E1B      -0.2490
     20 CAR        21.8254  -29.9465   22.5412 C.2         1 E1B       0.0639
     21 CAS        23.3839  -29.1981   12.1071 C.ar        1 E1B       0.0156
     22 CAT        22.6628  -28.3836   14.3081 C.ar        1 E1B       0.0678
     23 CAU        21.8137  -30.4323   21.2065 C.ar        1 E1B       0.0111
     24 CAV        22.3303  -29.5117   16.4691 C.ar        1 E1B       0.1682
     25 CAW        22.0697  -30.0579   18.7944 C.ar        1 E1B       0.0354
     26 CAY        21.7474  -31.4101   18.5037 C.ar        1 E1B       0.0121
     27 H1         21.6029  -32.7268   13.4295 H           1 E1B       0.1131
     28 H2         21.2122  -33.8754   17.3363 H           1 E1B       0.0992
     29 H3         24.8996  -31.6158   10.2271 H           1 E1B       0.1233
     30 H4         21.4821  -26.4337   11.8275 H           1 E1B       0.0590
     31 H5         22.6089  -28.0786   10.4716 H           1 E1B       0.0537
     32 H6         21.4607  -26.6427   14.2337 H           1 E1B       0.0543
     33 H7         21.2661  -32.4282   21.6867 H           1 E1B       0.0637
     34 H8         21.2362  -33.2433   19.4690 H           1 E1B       0.0642
     35 H9         23.9757  -30.0045   13.9855 H           1 E1B       0.0550
     36 H10        22.3608  -28.6014   20.2855 H           1 E1B       0.0650
     37 H11        22.6663  -27.5964   16.1186 H           1 E1B       0.2200
@<TRIPOS>BOND
     1     1     2  ar
     2     6     1  ar
     3     3     2  ar
     4     4     3  ar
     5     5     4  ar
     6    24     4  ar
     7     5     6  ar
     8    26     5  ar
     9    10     7   3
    10    20     8  ar
    11    20     9  ar
    12    21    10   1
    13    11    12  ar
    14    13    11  ar
    15    21    12  ar
    16    22    13  ar
    17    14    15  ar
    18    23    14  ar
    19    15    26  ar
    20    16    21  ar
    21    22    16  ar
    22    23    17  ar
    23    17    25  ar
    24    18    24  ar
    25    25    18  ar
    26    19    22   1
    27    24    19   1
    28    20    23   1
    29    25    26  ar
    30     2    27   1
    31     6    28   1
    32     7    29   1
    33    11    30   1
    34    12    31   1
    35    13    32   1
    36    14    33   1
    37    15    34   1
    38    16    35   1
    39    17    36   1
    40    19    37   1
@<TRIPOS>SUBSTRUCTURE
     1  E1B      2

