@<TRIPOS>MOLECULE
3pe2_ligand_014
    37    40
SMALL
GAST_HUCK
****
This file was generated by PARSER (from files_GN.cpp)

@<TRIPOS>ATOM
      1 N1         23.5652  -28.8004   20.3919 N.ar        1 E1B      -0.2566
      2 C2         23.5508  -29.4410   19.2033 C.ar        1 E1B       0.0922
      3 N3         22.7246  -30.4941   19.0332 N.ar        1 E1B      -0.2517
      4 C4         21.8829  -30.9402   20.0002 C.ar        1 E1B       0.1245
      5 C5         21.9050  -30.3141   21.2839 C.ar        1 E1B       0.0502
      6 C6         22.7871  -29.2075   21.4245 C.ar        1 E1B       0.0434
      7 CAA        22.7396  -35.3524   13.8219 C.1         1 E1B      -0.1140
      8 OAB        18.1593  -33.8961   25.2229 O.co2       1 E1B      -0.5601
      9 OAC        18.4011  -32.0208   26.5381 O.co2       1 E1B      -0.5601
     10 CAD        22.4014  -34.4111   14.4771 C.1         1 E1B      -0.0725
     11 CAE        21.6830  -30.9865   15.4313 C.ar        1 E1B      -0.0695
     12 CAG        22.0954  -32.0842   14.6563 C.ar        1 E1B      -0.0574
     13 CAH        21.1989  -31.1867   16.7344 C.ar        1 E1B      -0.0371
     14 CAI        20.2386  -30.9029   24.6393 C.ar        1 E1B      -0.0469
     15 CAJ        21.0324  -30.3052   23.6426 C.ar        1 E1B      -0.0482
     16 CAL        21.5852  -33.5753   16.5217 C.ar        1 E1B      -0.0223
     17 CAM        19.4718  -32.5566   23.0397 C.ar        1 E1B      -0.0324
     18 NAP        20.2672  -32.4882   20.7955 N.ar        1 E1B      -0.2773
     19 NAQ        20.7967  -32.7178   18.6018 N.pl3       1 E1B      -0.2490
     20 CAR        18.6639  -32.6476   25.3695 C.2         1 E1B       0.0639
     21 CAS        22.0320  -33.3888   15.1947 C.ar        1 E1B       0.0156
     22 CAT        21.2116  -32.4715   17.3226 C.ar        1 E1B       0.0678
     23 CAU        19.4506  -32.0412   24.3561 C.ar        1 E1B       0.0111
     24 CAV        21.0034  -32.0287   19.7558 C.ar        1 E1B       0.1682
     25 CAW        20.2723  -31.9603   22.0437 C.ar        1 E1B       0.0354
     26 CAY        21.0839  -30.8269   22.3269 C.ar        1 E1B       0.0121
     27 H1         24.1347  -29.1156   18.4344 H           1 E1B       0.1131
     28 H2         22.8799  -28.6941   22.3007 H           1 E1B       0.0992
     29 H3         22.9963  -36.0790   13.3182 H           1 E1B       0.1233
     30 H4         21.7337  -30.0394   15.0464 H           1 E1B       0.0590
     31 H5         22.4280  -31.9210   13.6997 H           1 E1B       0.0537
     32 H6         20.8492  -30.3799   17.2562 H           1 E1B       0.0543
     33 H7         20.2563  -30.5017   25.5810 H           1 E1B       0.0637
     34 H8         21.5830  -29.4909   23.9108 H           1 E1B       0.0642
     35 H9         21.5492  -34.5191   16.9213 H           1 E1B       0.0550
     36 H10        18.8968  -33.3702   22.7945 H           1 E1B       0.0650
     37 H11        20.3043  -33.5490   18.7086 H           1 E1B       0.2200
@<TRIPOS>BOND
     1     1     2  ar
     2     6     1  ar
     3     3     2  ar
     4     4     3  ar
     5     5     4  ar
     6    24     4  ar
     7     5     6  ar
     8    26     5  ar
     9    10     7   3
    10    20     8  ar
    11    20     9  ar
    12    21    10   1
    13    11    12  ar
    14    13    11  ar
    15    21    12  ar
    16    22    13  ar
    17    14    15  ar
    18    23    14  ar
    19    15    26  ar
    20    16    21  ar
    21    22    16  ar
    22    23    17  ar
    23    17    25  ar
    24    18    24  ar
    25    25    18  ar
    26    19    22   1
    27    24    19   1
    28    20    23   1
    29    25    26  ar
    30     2    27   1
    31     6    28   1
    32     7    29   1
    33    11    30   1
    34    12    31   1
    35    13    32   1
    36    14    33   1
    37    15    34   1
    38    16    35   1
    39    17    36   1
    40    19    37   1
@<TRIPOS>SUBSTRUCTURE
     1  E1B      2

