@<TRIPOS>MOLECULE
3pe2_ligand_036
    37    40
SMALL
GAST_HUCK
****
This file was generated by PARSER (from files_GN.cpp)

@<TRIPOS>ATOM
      1 N1         26.3603  -20.7067    9.9863 N.ar        1 E1B      -0.2566
      2 C2         26.8629  -21.9396   10.2072 C.ar        1 E1B       0.0922
      3 N3         26.1771  -22.8119   10.9815 N.ar        1 E1B      -0.2517
      4 C4         24.9761  -22.4942   11.5336 C.ar        1 E1B       0.1245
      5 C5         24.4129  -21.1996   11.3263 C.ar        1 E1B       0.0502
      6 C6         25.1771  -20.3154   10.5231 C.ar        1 E1B       0.0434
      7 CAA        23.6860  -30.4089   12.3494 C.1         1 E1B      -0.1140
      8 OAB        18.7401  -21.1640   14.5301 O.co2       1 E1B      -0.5601
      9 OAC        18.5590  -19.1511   13.4385 O.co2       1 E1B      -0.5601
     10 CAD        23.7007  -29.3163   12.8316 C.1         1 E1B      -0.0725
     11 CAE        23.2177  -26.6348   15.2297 C.ar        1 E1B      -0.0695
     12 CAG        23.2098  -27.9221   14.6652 C.ar        1 E1B      -0.0574
     13 CAH        23.7169  -25.5433   14.4978 C.ar        1 E1B      -0.0371
     14 CAI        21.2067  -19.4390   12.3536 C.ar        1 E1B      -0.0469
     15 CAJ        22.4659  -19.6535   11.7604 C.ar        1 E1B      -0.0482
     16 CAL        24.2188  -27.0230   12.6307 C.ar        1 E1B      -0.0223
     17 CAM        21.2633  -21.6707   13.2961 C.ar        1 E1B      -0.0324
     18 NAP        23.0949  -23.0985   12.8499 N.ar        1 E1B      -0.2773
     19 NAQ        24.7698  -24.7122   12.4579 N.pl3       1 E1B      -0.2490
     20 CAR        19.3006  -20.2508   13.7019 C.2         1 E1B       0.0639
     21 CAS        23.7089  -28.1236   13.3580 C.ar        1 E1B       0.0156
     22 CAT        24.2175  -25.7255   13.1862 C.ar        1 E1B       0.0678
     23 CAU        20.5831  -20.4435   13.1298 C.ar        1 E1B       0.0111
     24 CAV        24.2874  -23.4507   12.3096 C.ar        1 E1B       0.1682
     25 CAW        22.5129  -21.8914   12.6914 C.ar        1 E1B       0.0354
     26 CAY        23.1493  -20.8874   11.9092 C.ar        1 E1B       0.0121
     27 H1         27.7502  -22.2163    9.7880 H           1 E1B       0.1131
     28 H2         24.8632  -19.3678   10.3186 H           1 E1B       0.0992
     29 H3         23.6692  -31.2530   11.9810 H           1 E1B       0.1233
     30 H4         22.8699  -26.4956   16.1812 H           1 E1B       0.0590
     31 H5         22.8471  -28.7041   15.2152 H           1 E1B       0.0537
     32 H6         23.7531  -24.6251   14.9455 H           1 E1B       0.0543
     33 H7         20.7512  -18.5349   12.2112 H           1 E1B       0.0637
     34 H8         22.8635  -18.8951   11.2100 H           1 E1B       0.0642
     35 H9         24.5781  -27.1582   11.6793 H           1 E1B       0.0550
     36 H10        20.8398  -22.4279   13.8424 H           1 E1B       0.0650
     37 H11        25.5338  -24.9453   11.9068 H           1 E1B       0.2200
@<TRIPOS>BOND
     1     1     2  ar
     2     6     1  ar
     3     3     2  ar
     4     4     3  ar
     5     5     4  ar
     6    24     4  ar
     7     5     6  ar
     8    26     5  ar
     9    10     7   3
    10    20     8  ar
    11    20     9  ar
    12    21    10   1
    13    11    12  ar
    14    13    11  ar
    15    21    12  ar
    16    22    13  ar
    17    14    15  ar
    18    23    14  ar
    19    15    26  ar
    20    16    21  ar
    21    22    16  ar
    22    23    17  ar
    23    17    25  ar
    24    18    24  ar
    25    25    18  ar
    26    19    22   1
    27    24    19   1
    28    20    23   1
    29    25    26  ar
    30     2    27   1
    31     6    28   1
    32     7    29   1
    33    11    30   1
    34    12    31   1
    35    13    32   1
    36    14    33   1
    37    15    34   1
    38    16    35   1
    39    17    36   1
    40    19    37   1
@<TRIPOS>SUBSTRUCTURE
     1  E1B      2

