@<TRIPOS>MOLECULE
3pe2_ligand_003
    37    40
SMALL
GAST_HUCK
****
This file was generated by PARSER (from files_GN.cpp)

@<TRIPOS>ATOM
      1 N1         23.0364  -29.9228   21.6824 N.ar        1 E1B      -0.2566
      2 C2         23.2141  -30.7050   20.5913 C.ar        1 E1B       0.0922
      3 N3         22.1361  -31.2853   19.9978 N.ar        1 E1B      -0.2517
      4 C4         20.8686  -31.0998   20.4556 C.ar        1 E1B       0.1245
      5 C5         20.6455  -30.2323   21.5702 C.ar        1 E1B       0.0502
      6 C6         21.8019  -29.6834   22.1818 C.ar        1 E1B       0.0434
      7 CAA        21.8110  -33.0892   13.3105 C.1         1 E1B      -0.1140
      8 OAB        14.2722  -30.1378   22.9378 O.co2       1 E1B      -0.5601
      9 OAC        14.8231  -27.9471   23.4144 O.co2       1 E1B      -0.5601
     10 CAD        21.8448  -33.1669   14.5020 C.1         1 E1B      -0.0725
     11 CAE        23.0688  -33.9506   17.8241 C.ar        1 E1B      -0.0695
     12 CAG        23.0526  -33.7523   16.4328 C.ar        1 E1B      -0.0574
     13 CAH        21.9584  -33.5787   18.6053 C.ar        1 E1B      -0.0371
     14 CAI        17.6271  -28.7931   23.3507 C.ar        1 E1B      -0.0469
     15 CAJ        18.9684  -29.0474   23.0228 C.ar        1 E1B      -0.0482
     16 CAL        20.7634  -32.9203   16.5860 C.ar        1 E1B      -0.0223
     17 CAM        16.9090  -30.3249   21.6157 C.ar        1 E1B      -0.0324
     18 NAP        18.5304  -31.4249   20.2613 N.ar        1 E1B      -0.2773
     19 NAQ        19.7642  -32.5423   18.7197 N.pl3       1 E1B      -0.2490
     20 CAR        15.2229  -29.1735   23.0059 C.2         1 E1B       0.0639
     21 CAS        21.8861  -33.2725   15.8029 C.ar        1 E1B       0.0156
     22 CAT        20.8197  -33.0006   17.9970 C.ar        1 E1B       0.0678
     23 CAU        16.5757  -29.4284   22.6589 C.ar        1 E1B       0.0111
     24 CAV        19.7694  -31.7243   19.8098 C.ar        1 E1B       0.1682
     25 CAW        18.2550  -30.5776   21.2818 C.ar        1 E1B       0.0354
     26 CAY        19.3155  -29.9440   21.9812 C.ar        1 E1B       0.0121
     27 H1         24.1549  -30.8638   20.2197 H           1 E1B       0.1131
     28 H2         21.7547  -29.0885   23.0063 H           1 E1B       0.0992
     29 H3         21.7838  -33.0362   12.3928 H           1 E1B       0.1233
     30 H4         23.8894  -34.3568   18.2719 H           1 E1B       0.0590
     31 H5         23.8950  -33.9747   15.8905 H           1 E1B       0.0537
     32 H6         21.9953  -33.7021   19.6173 H           1 E1B       0.0543
     33 H7         17.4294  -28.1446   24.1170 H           1 E1B       0.0637
     34 H8         19.6773  -28.5538   23.5621 H           1 E1B       0.0642
     35 H9         19.9105  -32.5689   16.1408 H           1 E1B       0.0550
     36 H10        16.1695  -30.7850   21.0812 H           1 E1B       0.0650
     37 H11        18.8836  -32.7189   18.3387 H           1 E1B       0.2200
@<TRIPOS>BOND
     1     1     2  ar
     2     6     1  ar
     3     3     2  ar
     4     4     3  ar
     5     5     4  ar
     6    24     4  ar
     7     5     6  ar
     8    26     5  ar
     9    10     7   3
    10    20     8  ar
    11    20     9  ar
    12    21    10   1
    13    11    12  ar
    14    13    11  ar
    15    21    12  ar
    16    22    13  ar
    17    14    15  ar
    18    23    14  ar
    19    15    26  ar
    20    16    21  ar
    21    22    16  ar
    22    23    17  ar
    23    17    25  ar
    24    18    24  ar
    25    25    18  ar
    26    19    22   1
    27    24    19   1
    28    20    23   1
    29    25    26  ar
    30     2    27   1
    31     6    28   1
    32     7    29   1
    33    11    30   1
    34    12    31   1
    35    13    32   1
    36    14    33   1
    37    15    34   1
    38    16    35   1
    39    17    36   1
    40    19    37   1
@<TRIPOS>SUBSTRUCTURE
     1  E1B      2

