@<TRIPOS>MOLECULE
3pe2_ligand_013
    37    40
SMALL
GAST_HUCK
****
This file was generated by PARSER (from files_GN.cpp)

@<TRIPOS>ATOM
      1 N1         19.1737  -32.9157   26.1610 N.ar        1 E1B      -0.2566
      2 C2         18.1953  -33.8443   26.2001 C.ar        1 E1B       0.0922
      3 N3         17.7110  -34.3197   25.0371 N.ar        1 E1B      -0.2517
      4 C4         18.1257  -33.9092   23.8122 C.ar        1 E1B       0.1245
      5 C5         19.1786  -32.9461   23.7340 C.ar        1 E1B       0.0502
      6 C6         19.6715  -32.4665   24.9823 C.ar        1 E1B       0.0434
      7 CAA        12.9996  -34.2954   26.9832 C.1         1 E1B      -0.1140
      8 OAB        20.3362  -31.8909   17.4172 O.co2       1 E1B      -0.5601
      9 OAC        22.2257  -30.9401   18.3169 O.co2       1 E1B      -0.5601
     10 CAD        13.6089  -34.9927   26.2340 C.1         1 E1B      -0.0725
     11 CAE        15.0846  -37.9265   24.6723 C.ar        1 E1B      -0.0695
     12 CAG        14.3342  -37.1436   25.5670 C.ar        1 E1B      -0.0574
     13 CAH        15.8101  -37.3232   23.6301 C.ar        1 E1B      -0.0371
     14 CAI        21.2142  -31.3560   20.9641 C.ar        1 E1B      -0.0469
     15 CAJ        20.7584  -31.6673   22.2569 C.ar        1 E1B      -0.0482
     16 CAL        15.0094  -35.1416   24.3536 C.ar        1 E1B      -0.0223
     17 CAM        19.4915  -32.7716   20.0083 C.ar        1 E1B      -0.0324
     18 NAP        18.0489  -34.0023   21.4364 N.ar        1 E1B      -0.2773
     19 NAQ        16.5565  -35.3570   22.5000 N.pl3       1 E1B      -0.2490
     20 CAR        21.0425  -31.5617   18.5186 C.2         1 E1B       0.0639
     21 CAS        14.2910  -35.7444   25.4049 C.ar        1 E1B       0.0156
     22 CAT        15.8061  -35.9237   23.4868 C.ar        1 E1B       0.0678
     23 CAU        20.5895  -31.8960   19.8191 C.ar        1 E1B       0.0111
     24 CAV        17.5505  -34.4315   22.6222 C.ar        1 E1B       0.1682
     25 CAW        19.0596  -33.1101   21.3036 C.ar        1 E1B       0.0354
     26 CAY        19.6728  -32.5539   22.4592 C.ar        1 E1B       0.0121
     27 H1         17.8357  -34.1854   27.0895 H           1 E1B       0.1131
     28 H2         20.4073  -31.7742   25.0375 H           1 E1B       0.0992
     29 H3         12.5308  -33.7545   27.5624 H           1 E1B       0.1233
     30 H4         15.1116  -38.9479   24.7866 H           1 E1B       0.0590
     31 H5         13.8223  -37.6028   26.3238 H           1 E1B       0.0537
     32 H6         16.3698  -37.9043   23.0004 H           1 E1B       0.0543
     33 H7         22.0087  -30.7191   20.8725 H           1 E1B       0.0637
     34 H8         21.2468  -31.2423   23.0460 H           1 E1B       0.0642
     35 H9         15.0008  -34.1228   24.2391 H           1 E1B       0.0550
     36 H10        19.0160  -33.1875   19.2003 H           1 E1B       0.0650
     37 H11        16.4002  -35.7086   21.6071 H           1 E1B       0.2200
@<TRIPOS>BOND
     1     1     2  ar
     2     6     1  ar
     3     3     2  ar
     4     4     3  ar
     5     5     4  ar
     6    24     4  ar
     7     5     6  ar
     8    26     5  ar
     9    10     7   3
    10    20     8  ar
    11    20     9  ar
    12    21    10   1
    13    11    12  ar
    14    13    11  ar
    15    21    12  ar
    16    22    13  ar
    17    14    15  ar
    18    23    14  ar
    19    15    26  ar
    20    16    21  ar
    21    22    16  ar
    22    23    17  ar
    23    17    25  ar
    24    18    24  ar
    25    25    18  ar
    26    19    22   1
    27    24    19   1
    28    20    23   1
    29    25    26  ar
    30     2    27   1
    31     6    28   1
    32     7    29   1
    33    11    30   1
    34    12    31   1
    35    13    32   1
    36    14    33   1
    37    15    34   1
    38    16    35   1
    39    17    36   1
    40    19    37   1
@<TRIPOS>SUBSTRUCTURE
     1  E1B      2

