@<TRIPOS>MOLECULE
3pe2_ligand_002
    37    40
SMALL
GAST_HUCK
****
This file was generated by PARSER (from files_GN.cpp)

@<TRIPOS>ATOM
      1 N1         23.2210  -28.4609   17.8259 N.ar        1 E1B      -0.2566
      2 C2         22.4999  -28.8271   18.9075 C.ar        1 E1B       0.0922
      3 N3         21.8197  -29.9949   18.8833 N.ar        1 E1B      -0.2517
      4 C4         21.8307  -30.8506   17.8258 C.ar        1 E1B       0.1245
      5 C5         22.5638  -30.4809   16.6593 C.ar        1 E1B       0.0502
      6 C6         23.2582  -29.2404   16.7176 C.ar        1 E1B       0.0434
      7 CAA        16.4186  -30.2469   22.4325 C.1         1 E1B      -0.1140
      8 OAB        21.6719  -35.2444   12.2858 O.co2       1 E1B      -0.5601
      9 OAC        23.0423  -33.8501   11.0772 O.co2       1 E1B      -0.5601
     10 CAD        17.5074  -30.6043   22.1088 C.1         1 E1B      -0.0725
     11 CAE        21.0861  -31.1697   22.2505 C.ar        1 E1B      -0.0695
     12 CAG        19.7994  -30.7402   22.6127 C.ar        1 E1B      -0.0574
     13 CAH        21.2838  -31.8626   21.0434 C.ar        1 E1B      -0.0371
     14 CAI        23.1587  -31.9834   13.2359 C.ar        1 E1B      -0.0469
     15 CAJ        23.2237  -31.0817   14.3105 C.ar        1 E1B      -0.0482
     16 CAL        18.9085  -31.6858   20.5417 C.ar        1 E1B      -0.0223
     17 CAM        21.7524  -33.4601   14.5415 C.ar        1 E1B      -0.0324
     18 NAP        21.1599  -32.8702   16.7722 N.ar        1 E1B      -0.2773
     19 NAQ        20.4034  -32.6114   18.9075 N.pl3       1 E1B      -0.2490
     20 CAR        22.3810  -34.0934   12.2337 C.2         1 E1B       0.0639
     21 CAS        18.7004  -31.0063   21.7651 C.ar        1 E1B       0.0156
     22 CAT        20.2055  -32.0831   20.1518 C.ar        1 E1B       0.0678
     23 CAU        22.4260  -33.1883   13.3268 C.ar        1 E1B       0.0111
     24 CAV        21.1342  -32.0894   17.8812 C.ar        1 E1B       0.1682
     25 CAW        21.8140  -32.5619   15.6246 C.ar        1 E1B       0.0354
     26 CAY        22.5533  -31.3502   15.5284 C.ar        1 E1B       0.0121
     27 H1         22.4866  -28.2413   19.7449 H           1 E1B       0.1131
     28 H2         23.8039  -28.8829   15.9367 H           1 E1B       0.0992
     29 H3         15.5733  -29.9754   22.6890 H           1 E1B       0.1233
     30 H4         21.8872  -30.9402   22.8414 H           1 E1B       0.0590
     31 H5         19.6765  -30.2287   23.4946 H           1 E1B       0.0537
     32 H6         22.2326  -32.1254   20.7759 H           1 E1B       0.0543
     33 H7         23.6607  -31.7425   12.3787 H           1 E1B       0.0637
     34 H8         23.7682  -30.2309   14.1826 H           1 E1B       0.0642
     35 H9         18.1223  -31.8518   19.9038 H           1 E1B       0.0550
     36 H10        21.2166  -34.3210   14.6540 H           1 E1B       0.0650
     37 H11        19.9225  -33.4361   18.7138 H           1 E1B       0.2200
@<TRIPOS>BOND
     1     1     2  ar
     2     6     1  ar
     3     3     2  ar
     4     4     3  ar
     5     5     4  ar
     6    24     4  ar
     7     5     6  ar
     8    26     5  ar
     9    10     7   3
    10    20     8  ar
    11    20     9  ar
    12    21    10   1
    13    11    12  ar
    14    13    11  ar
    15    21    12  ar
    16    22    13  ar
    17    14    15  ar
    18    23    14  ar
    19    15    26  ar
    20    16    21  ar
    21    22    16  ar
    22    23    17  ar
    23    17    25  ar
    24    18    24  ar
    25    25    18  ar
    26    19    22   1
    27    24    19   1
    28    20    23   1
    29    25    26  ar
    30     2    27   1
    31     6    28   1
    32     7    29   1
    33    11    30   1
    34    12    31   1
    35    13    32   1
    36    14    33   1
    37    15    34   1
    38    16    35   1
    39    17    36   1
    40    19    37   1
@<TRIPOS>SUBSTRUCTURE
     1  E1B      2

