@<TRIPOS>MOLECULE
3pe2_ligand_051
    37    40
SMALL
GAST_HUCK
****
This file was generated by PARSER (from files_GN.cpp)

@<TRIPOS>ATOM
      1 N1         21.1476  -26.6301   15.7020 N.ar        1 E1B      -0.2566
      2 C2         21.4511  -27.7538   15.0180 C.ar        1 E1B       0.0922
      3 N3         22.1967  -27.6566   13.8980 N.ar        1 E1B      -0.2517
      4 C4         22.6723  -26.4776   13.4183 C.ar        1 E1B       0.1245
      5 C5         22.3605  -25.2723   14.1140 C.ar        1 E1B       0.0502
      6 C6         21.5750  -25.4134   15.2872 C.ar        1 E1B       0.0434
      7 CAA        24.4043  -32.2226   14.8121 C.1         1 E1B      -0.1140
      8 OAB        24.8618  -20.3811   10.6180 O.co2       1 E1B      -0.5601
      9 OAC        24.2221  -19.2156   12.4965 O.co2       1 E1B      -0.5601
     10 CAD        24.0201  -31.5838   13.8803 C.1         1 E1B      -0.0725
     11 CAE        22.1437  -30.6655   10.9075 C.ar        1 E1B      -0.0695
     12 CAG        22.6223  -31.4269   11.9904 C.ar        1 E1B      -0.0574
     13 CAH        22.6023  -29.3517   10.7078 C.ar        1 E1B      -0.0371
     14 CAI        23.0869  -21.5833   13.6335 C.ar        1 E1B      -0.0469
     15 CAJ        22.5888  -22.7691   14.2018 C.ar        1 E1B      -0.0482
     16 CAL        24.0339  -29.5595   12.6730 C.ar        1 E1B      -0.0223
     17 CAM        24.0888  -22.8581   11.8339 C.ar        1 E1B      -0.0324
     18 NAP        23.8858  -25.2272   11.8016 N.ar        1 E1B      -0.2773
     19 NAQ        23.8619  -27.4763   11.4635 N.pl3       1 E1B      -0.2490
     20 CAR        24.3139  -20.4033   11.8546 C.2         1 E1B       0.0639
     21 CAS        23.5845  -30.8833   12.8698 C.ar        1 E1B       0.0156
     22 CAT        23.5211  -28.7811   11.6105 C.ar        1 E1B       0.0678
     23 CAU        23.8374  -21.6050   12.4367 C.ar        1 E1B       0.0111
     24 CAV        23.4678  -26.4365   12.2443 C.ar        1 E1B       0.1682
     25 CAW        23.6037  -24.0495   12.4085 C.ar        1 E1B       0.0354
     26 CAY        22.8338  -24.0295   13.6037 C.ar        1 E1B       0.0121
     27 H1         21.1150  -28.6618   15.3367 H           1 E1B       0.1131
     28 H2         21.2976  -24.6144   15.8540 H           1 E1B       0.0992
     29 H3         24.6958  -32.7158   15.5357 H           1 E1B       0.1233
     30 H4         21.4494  -31.0629   10.2719 H           1 E1B       0.0590
     31 H5         22.2567  -32.3737   12.1293 H           1 E1B       0.0537
     32 H6         22.2375  -28.8030    9.9249 H           1 E1B       0.0543
     33 H7         22.8744  -20.6979   14.0992 H           1 E1B       0.0637
     34 H8         22.0423  -22.6839   15.0576 H           1 E1B       0.0642
     35 H9         24.7007  -29.1335   13.3266 H           1 E1B       0.0550
     36 H10        24.6378  -22.9140   10.9722 H           1 E1B       0.0650
     37 H11        24.4067  -27.2568   10.6898 H           1 E1B       0.2200
@<TRIPOS>BOND
     1     1     2  ar
     2     6     1  ar
     3     3     2  ar
     4     4     3  ar
     5     5     4  ar
     6    24     4  ar
     7     5     6  ar
     8    26     5  ar
     9    10     7   3
    10    20     8  ar
    11    20     9  ar
    12    21    10   1
    13    11    12  ar
    14    13    11  ar
    15    21    12  ar
    16    22    13  ar
    17    14    15  ar
    18    23    14  ar
    19    15    26  ar
    20    16    21  ar
    21    22    16  ar
    22    23    17  ar
    23    17    25  ar
    24    18    24  ar
    25    25    18  ar
    26    19    22   1
    27    24    19   1
    28    20    23   1
    29    25    26  ar
    30     2    27   1
    31     6    28   1
    32     7    29   1
    33    11    30   1
    34    12    31   1
    35    13    32   1
    36    14    33   1
    37    15    34   1
    38    16    35   1
    39    17    36   1
    40    19    37   1
@<TRIPOS>SUBSTRUCTURE
     1  E1B      2

