@<TRIPOS>MOLECULE
3pe2_ligand_042
    37    40
SMALL
GAST_HUCK
****
This file was generated by PARSER (from files_GN.cpp)

@<TRIPOS>ATOM
      1 N1         17.9727  -29.4663   21.4847 N.ar        1 E1B      -0.2566
      2 C2         18.4440  -30.7324   21.4560 C.ar        1 E1B       0.0922
      3 N3         17.9903  -31.6237   22.3671 N.ar        1 E1B      -0.2517
      4 C4         17.0839  -31.3018   23.3268 C.ar        1 E1B       0.1245
      5 C5         16.5541  -29.9763   23.3718 C.ar        1 E1B       0.0502
      6 C6         17.0575  -29.0710   22.4020 C.ar        1 E1B       0.0434
      7 CAA        17.7853  -37.9500   20.5721 C.1         1 E1B      -0.1140
      8 OAB        12.0919  -27.6796   27.5854 O.co2       1 E1B      -0.5601
      9 OAC        11.9153  -29.9450   27.9532 O.co2       1 E1B      -0.5601
     10 CAD        18.1131  -37.0624   21.3013 C.1         1 E1B      -0.0725
     11 CAE        20.2468  -34.7156   23.0605 C.ar        1 E1B      -0.0695
     12 CAG        19.8458  -35.7647   22.2136 C.ar        1 E1B      -0.0574
     13 CAH        19.2871  -33.9796   23.7785 C.ar        1 E1B      -0.0371
     14 CAI        13.9717  -28.1342   25.4585 C.ar        1 E1B      -0.0469
     15 CAJ        14.9654  -28.3704   24.4903 C.ar        1 E1B      -0.0482
     16 CAL        17.5161  -35.3487   22.8116 C.ar        1 E1B      -0.0223
     17 CAM        14.1278  -30.4415   26.1851 C.ar        1 E1B      -0.0324
     18 NAP        15.6587  -31.9173   25.1280 N.ar        1 E1B      -0.2773
     19 NAQ        16.9626  -33.5891   24.3322 N.pl3       1 E1B      -0.2490
     20 CAR        12.5210  -28.9297   27.2890 C.2         1 E1B       0.0639
     21 CAS        18.4776  -36.0916   22.0898 C.ar        1 E1B       0.0156
     22 CAT        17.9125  -34.2735   23.6373 C.ar        1 E1B       0.0678
     23 CAU        13.5330  -29.1659   26.3199 C.ar        1 E1B       0.0111
     24 CAV        16.6190  -32.2787   24.2452 C.ar        1 E1B       0.1682
     25 CAW        15.1248  -30.6763   25.2188 C.ar        1 E1B       0.0354
     26 CAY        15.5617  -29.6478   24.3404 C.ar        1 E1B       0.0121
     27 H1         19.1261  -31.0133   20.7537 H           1 E1B       0.1131
     28 H2         16.7425  -28.1055   22.3471 H           1 E1B       0.0992
     29 H3         17.5355  -38.6334   20.0065 H           1 E1B       0.1233
     30 H4         21.2399  -34.4906   23.1529 H           1 E1B       0.0590
     31 H5         20.5617  -36.2846   21.6945 H           1 E1B       0.0537
     32 H6         19.5938  -33.2282   24.3991 H           1 E1B       0.0543
     33 H7         13.5691  -27.1952   25.5225 H           1 E1B       0.0637
     34 H8         15.2367  -27.5850   23.8983 H           1 E1B       0.0642
     35 H9         16.5187  -35.5675   22.7206 H           1 E1B       0.0550
     36 H10        13.8344  -31.2130   26.7915 H           1 E1B       0.0650
     37 H11        16.4091  -34.1284   24.9193 H           1 E1B       0.2200
@<TRIPOS>BOND
     1     1     2  ar
     2     6     1  ar
     3     3     2  ar
     4     4     3  ar
     5     5     4  ar
     6    24     4  ar
     7     5     6  ar
     8    26     5  ar
     9    10     7   3
    10    20     8  ar
    11    20     9  ar
    12    21    10   1
    13    11    12  ar
    14    13    11  ar
    15    21    12  ar
    16    22    13  ar
    17    14    15  ar
    18    23    14  ar
    19    15    26  ar
    20    16    21  ar
    21    22    16  ar
    22    23    17  ar
    23    17    25  ar
    24    18    24  ar
    25    25    18  ar
    26    19    22   1
    27    24    19   1
    28    20    23   1
    29    25    26  ar
    30     2    27   1
    31     6    28   1
    32     7    29   1
    33    11    30   1
    34    12    31   1
    35    13    32   1
    36    14    33   1
    37    15    34   1
    38    16    35   1
    39    17    36   1
    40    19    37   1
@<TRIPOS>SUBSTRUCTURE
     1  E1B      2

