@<TRIPOS>MOLECULE
3pe2_ligand_038
    37    40
SMALL
GAST_HUCK
****
This file was generated by PARSER (from files_GN.cpp)

@<TRIPOS>ATOM
      1 N1         23.3078  -26.0029   18.1966 N.ar        1 E1B      -0.2566
      2 C2         23.3610  -27.0710   17.3742 C.ar        1 E1B       0.0922
      3 N3         23.3426  -26.8874   16.0349 N.ar        1 E1B      -0.2517
      4 C4         23.2799  -25.6566   15.4664 C.ar        1 E1B       0.1245
      5 C5         23.2945  -24.4978   16.3044 C.ar        1 E1B       0.0502
      6 C6         23.2756  -24.7404   17.7054 C.ar        1 E1B       0.0434
      7 CAA        23.4887  -31.5078   10.2585 C.1         1 E1B      -0.1140
      8 OAB        22.8841  -18.3052   14.2533 O.co2       1 E1B      -0.5601
      9 OAC        24.1465  -19.2315   12.5589 O.co2       1 E1B      -0.5601
     10 CAD        23.1572  -30.7829   11.1475 C.1         1 E1B      -0.0725
     11 CAE        21.3752  -29.5912   14.0684 C.ar        1 E1B      -0.0695
     12 CAG        21.8811  -30.4664   13.0966 C.ar        1 E1B      -0.0574
     13 CAH        21.7724  -28.2488   14.0759 C.ar        1 E1B      -0.0371
     14 CAI        23.3637  -20.7405   15.7858 C.ar        1 E1B      -0.0469
     15 CAJ        23.3316  -21.9824   16.4446 C.ar        1 E1B      -0.0482
     16 CAL        23.1841  -28.6416   12.1447 C.ar        1 E1B      -0.0223
     17 CAM        23.4664  -21.8678   13.6466 C.ar        1 E1B      -0.0324
     18 NAP        23.3415  -24.2492   13.5552 N.ar        1 E1B      -0.2773
     19 NAQ        23.1108  -26.4492   13.0898 N.pl3       1 E1B      -0.2490
     20 CAR        23.4786  -19.4074   13.7269 C.2         1 E1B       0.0639
     21 CAS        22.7688  -29.9922   12.1081 C.ar        1 E1B       0.0156
     22 CAT        22.7243  -27.7639   13.1541 C.ar        1 E1B       0.0678
     23 CAU        23.4377  -20.6606   14.3790 C.ar        1 E1B       0.0111
     24 CAV        23.2408  -25.5017   14.0568 C.ar        1 E1B       0.1682
     25 CAW        23.3976  -23.1170   14.2984 C.ar        1 E1B       0.0354
     26 CAY        23.3354  -23.1988   15.7164 C.ar        1 E1B       0.0121
     27 H1         23.4077  -28.0187   17.7708 H           1 E1B       0.1131
     28 H2         23.2513  -23.9843   18.3832 H           1 E1B       0.0992
     29 H3         23.7387  -32.0669    9.5709 H           1 E1B       0.1233
     30 H4         20.7033  -29.9289   14.7605 H           1 E1B       0.0590
     31 H5         21.5742  -31.4511   13.1009 H           1 E1B       0.0537
     32 H6         21.3454  -27.6108   14.7597 H           1 E1B       0.0543
     33 H7         23.3408  -19.8878   16.3559 H           1 E1B       0.0637
     34 H8         23.2834  -21.9706   17.4591 H           1 E1B       0.0642
     35 H9         23.8289  -28.2851   11.4278 H           1 E1B       0.0550
     36 H10        23.4979  -21.8457   12.6205 H           1 E1B       0.0650
     37 H11        23.2729  -26.1281   12.1908 H           1 E1B       0.2200
@<TRIPOS>BOND
     1     1     2  ar
     2     6     1  ar
     3     3     2  ar
     4     4     3  ar
     5     5     4  ar
     6    24     4  ar
     7     5     6  ar
     8    26     5  ar
     9    10     7   3
    10    20     8  ar
    11    20     9  ar
    12    21    10   1
    13    11    12  ar
    14    13    11  ar
    15    21    12  ar
    16    22    13  ar
    17    14    15  ar
    18    23    14  ar
    19    15    26  ar
    20    16    21  ar
    21    22    16  ar
    22    23    17  ar
    23    17    25  ar
    24    18    24  ar
    25    25    18  ar
    26    19    22   1
    27    24    19   1
    28    20    23   1
    29    25    26  ar
    30     2    27   1
    31     6    28   1
    32     7    29   1
    33    11    30   1
    34    12    31   1
    35    13    32   1
    36    14    33   1
    37    15    34   1
    38    16    35   1
    39    17    36   1
    40    19    37   1
@<TRIPOS>SUBSTRUCTURE
     1  E1B      2

