@<TRIPOS>MOLECULE
3pe2_ligand_016
    37    40
SMALL
GAST_HUCK
****
This file was generated by PARSER (from files_GN.cpp)

@<TRIPOS>ATOM
      1 N1         19.2839  -30.6895   24.9478 N.ar        1 E1B      -0.2566
      2 C2         20.2648  -30.6784   24.0181 C.ar        1 E1B       0.0922
      3 N3         20.2907  -31.6502   23.0587 N.ar        1 E1B      -0.2517
      4 C4         19.3604  -32.6416   23.0041 C.ar        1 E1B       0.1245
      5 C5         18.3358  -32.6963   23.9955 C.ar        1 E1B       0.0502
      6 C6         18.3359  -31.6493   24.9544 C.ar        1 E1B       0.0434
      7 CAA        21.7336  -28.3979   19.1662 C.1         1 E1B      -0.1140
      8 OAB        14.3326  -37.7270   24.9879 O.co2       1 E1B      -0.5601
      9 OAC        14.2694  -37.5800   22.6711 O.co2       1 E1B      -0.5601
     10 CAD        21.9872  -29.5184   19.4965 C.1         1 E1B      -0.0725
     11 CAE        23.7808  -32.4670   20.6392 C.ar        1 E1B      -0.0695
     12 CAG        23.5417  -31.1590   20.1650 C.ar        1 E1B      -0.0574
     13 CAH        22.6981  -33.3335   20.8903 C.ar        1 E1B      -0.0371
     14 CAI        15.5461  -35.0881   24.9167 C.ar        1 E1B      -0.0469
     15 CAJ        16.3907  -33.9665   24.9547 C.ar        1 E1B      -0.0482
     16 CAL        21.1476  -31.6162   20.1233 C.ar        1 E1B      -0.0223
     17 CAM        16.6669  -35.8609   22.9011 C.ar        1 E1B      -0.0324
     18 NAP        18.5194  -34.6319   22.0349 N.ar        1 E1B      -0.2773
     19 NAQ        20.3396  -33.7355   20.9834 N.pl3       1 E1B      -0.2490
     20 CAR        14.8131  -37.1699   23.8494 C.2         1 E1B       0.0639
     21 CAS        22.2251  -30.7304   19.8929 C.ar        1 E1B       0.0156
     22 CAT        21.3676  -32.8996   20.6773 C.ar        1 E1B       0.0678
     23 CAU        15.6702  -36.0449   23.8840 C.ar        1 E1B       0.0111
     24 CAV        19.4334  -33.6278   21.9934 C.ar        1 E1B       0.1682
     25 CAW        17.5373  -34.7549   22.9616 C.ar        1 E1B       0.0354
     26 CAY        17.4145  -33.7788   23.9906 C.ar        1 E1B       0.0121
     27 H1         20.9912  -29.9511   24.0276 H           1 E1B       0.1131
     28 H2         17.6360  -31.5881   25.6939 H           1 E1B       0.0992
     29 H3         21.5342  -27.5275   18.9223 H           1 E1B       0.1233
     30 H4         24.7340  -32.7786   20.8218 H           1 E1B       0.0590
     31 H5         24.3416  -30.5328   20.0283 H           1 E1B       0.0537
     32 H6         22.8790  -34.2688   21.2562 H           1 E1B       0.0543
     33 H7         14.8294  -35.1965   25.6386 H           1 E1B       0.0637
     34 H8         16.2443  -33.3136   25.7116 H           1 E1B       0.0642
     35 H9         20.1836  -31.3262   19.9197 H           1 E1B       0.0550
     36 H10        16.7753  -36.5509   22.1504 H           1 E1B       0.0650
     37 H11        20.2585  -34.5222   20.4173 H           1 E1B       0.2200
@<TRIPOS>BOND
     1     1     2  ar
     2     6     1  ar
     3     3     2  ar
     4     4     3  ar
     5     5     4  ar
     6    24     4  ar
     7     5     6  ar
     8    26     5  ar
     9    10     7   3
    10    20     8  ar
    11    20     9  ar
    12    21    10   1
    13    11    12  ar
    14    13    11  ar
    15    21    12  ar
    16    22    13  ar
    17    14    15  ar
    18    23    14  ar
    19    15    26  ar
    20    16    21  ar
    21    22    16  ar
    22    23    17  ar
    23    17    25  ar
    24    18    24  ar
    25    25    18  ar
    26    19    22   1
    27    24    19   1
    28    20    23   1
    29    25    26  ar
    30     2    27   1
    31     6    28   1
    32     7    29   1
    33    11    30   1
    34    12    31   1
    35    13    32   1
    36    14    33   1
    37    15    34   1
    38    16    35   1
    39    17    36   1
    40    19    37   1
@<TRIPOS>SUBSTRUCTURE
     1  E1B      2

