@<TRIPOS>MOLECULE
3pe2_ligand_029
    37    40
SMALL
GAST_HUCK
****
This file was generated by PARSER (from files_GN.cpp)

@<TRIPOS>ATOM
      1 N1         19.1463  -20.5460   21.4311 N.ar        1 E1B      -0.2566
      2 C2         19.2027  -21.8829   21.6191 C.ar        1 E1B       0.0922
      3 N3         19.2493  -22.7007   20.5421 N.ar        1 E1B      -0.2517
      4 C4         19.2402  -22.2338   19.2656 C.ar        1 E1B       0.1245
      5 C5         19.2000  -20.8264   19.0324 C.ar        1 E1B       0.0502
      6 C6         19.1408  -20.0065   20.1897 C.ar        1 E1B       0.0434
      7 CAA        22.1647  -27.8975   21.9326 C.1         1 E1B      -0.1140
      8 OAB        18.0568  -18.9038   13.0413 O.co2       1 E1B      -0.5601
      9 OAC        20.3001  -18.3766   13.1382 O.co2       1 E1B      -0.5601
     10 CAD        21.2006  -27.3619   21.4739 C.1         1 E1B      -0.0725
     11 CAE        17.7940  -26.1558   21.1120 C.ar        1 E1B      -0.0695
     12 CAG        18.9072  -26.8439   21.6294 C.ar        1 E1B      -0.0574
     13 CAH        17.9185  -25.3841   19.9432 C.ar        1 E1B      -0.0371
     14 CAI        19.2175  -18.5511   15.9935 C.ar        1 E1B      -0.0469
     15 CAJ        19.1920  -18.9593   17.3395 C.ar        1 E1B      -0.0482
     16 CAL        20.2710  -26.0079   19.7862 C.ar        1 E1B      -0.0223
     17 CAM        19.3189  -20.8765   15.2867 C.ar        1 E1B      -0.0324
     18 NAP        19.3342  -22.6074   16.9186 N.ar        1 E1B      -0.2773
     19 NAQ        19.3206  -24.4884   18.1962 N.pl3       1 E1B      -0.2490
     20 CAR        19.2639  -19.1002   13.6176 C.2         1 E1B       0.0639
     21 CAS        20.1551  -26.7696   20.9696 C.ar        1 E1B       0.0156
     22 CAT        19.1637  -25.2923   19.2813 C.ar        1 E1B       0.0678
     23 CAU        19.2825  -19.5070   14.9601 C.ar        1 E1B       0.0111
     24 CAV        19.2906  -23.1294   18.1653 C.ar        1 E1B       0.1682
     25 CAW        19.3009  -21.2823   16.6366 C.ar        1 E1B       0.0354
     26 CAY        19.2274  -20.3340   17.6962 C.ar        1 E1B       0.0121
     27 H1         19.2118  -22.2722   22.5643 H           1 E1B       0.1131
     28 H2         19.1069  -18.9915   20.1335 H           1 E1B       0.0992
     29 H3         22.9102  -28.3130   22.2872 H           1 E1B       0.1233
     30 H4         16.8985  -26.1893   21.6060 H           1 E1B       0.0590
     31 H5         18.8010  -27.3737   22.4977 H           1 E1B       0.0537
     32 H6         17.1106  -24.8632   19.5950 H           1 E1B       0.0543
     33 H7         19.1759  -17.5517   15.7735 H           1 E1B       0.0637
     34 H8         19.1397  -18.2299   18.0470 H           1 E1B       0.0642
     35 H9         21.1776  -25.9271   19.3086 H           1 E1B       0.0550
     36 H10        19.3529  -21.5821   14.5422 H           1 E1B       0.0650
     37 H11        19.4850  -24.9374   17.3489 H           1 E1B       0.2200
@<TRIPOS>BOND
     1     1     2  ar
     2     6     1  ar
     3     3     2  ar
     4     4     3  ar
     5     5     4  ar
     6    24     4  ar
     7     5     6  ar
     8    26     5  ar
     9    10     7   3
    10    20     8  ar
    11    20     9  ar
    12    21    10   1
    13    11    12  ar
    14    13    11  ar
    15    21    12  ar
    16    22    13  ar
    17    14    15  ar
    18    23    14  ar
    19    15    26  ar
    20    16    21  ar
    21    22    16  ar
    22    23    17  ar
    23    17    25  ar
    24    18    24  ar
    25    25    18  ar
    26    19    22   1
    27    24    19   1
    28    20    23   1
    29    25    26  ar
    30     2    27   1
    31     6    28   1
    32     7    29   1
    33    11    30   1
    34    12    31   1
    35    13    32   1
    36    14    33   1
    37    15    34   1
    38    16    35   1
    39    17    36   1
    40    19    37   1
@<TRIPOS>SUBSTRUCTURE
     1  E1B      2

