@<TRIPOS>MOLECULE
3pe2_ligand_017
    37    40
SMALL
GAST_HUCK
****
This file was generated by PARSER (from files_GN.cpp)

@<TRIPOS>ATOM
      1 N1         19.2575  -24.6876   15.4997 N.ar        1 E1B      -0.2566
      2 C2         20.4405  -24.0316   15.4859 C.ar        1 E1B       0.0922
      3 N3         20.9858  -23.6147   16.6520 N.ar        1 E1B      -0.2517
      4 C4         20.3802  -23.8315   17.8510 C.ar        1 E1B       0.1245
      5 C5         19.1298  -24.5179   17.9056 C.ar        1 E1B       0.0502
      6 C6         18.6034  -24.9428   16.6590 C.ar        1 E1B       0.0434
      7 CAA        27.4887  -21.3480   20.8821 C.1         1 E1B      -0.1140
      8 OAB        17.2530  -25.9258   24.0088 O.co2       1 E1B      -0.5601
      9 OAC        15.6331  -24.4053   23.3686 O.co2       1 E1B      -0.5601
     10 CAD        26.2944  -21.3599   20.9155 C.1         1 E1B      -0.0725
     11 CAE        22.9210  -20.6693   22.0447 C.ar        1 E1B      -0.0695
     12 CAG        24.3248  -20.6898   22.0040 C.ar        1 E1B      -0.0574
     13 CAH        22.1773  -21.3299   21.0524 C.ar        1 E1B      -0.0371
     14 CAI        16.6648  -25.4695   20.6306 C.ar        1 E1B      -0.0469
     15 CAJ        17.2379  -25.3483   19.3516 C.ar        1 E1B      -0.0482
     16 CAL        24.2369  -22.0326   19.9684 C.ar        1 E1B      -0.0223
     17 CAM        18.6043  -24.3943   21.6120 C.ar        1 E1B      -0.0324
     18 NAP        20.3423  -23.5943   20.2113 N.ar        1 E1B      -0.2773
     19 NAQ        22.1575  -22.6794   18.9984 N.pl3       1 E1B      -0.2490
     20 CAR        16.7521  -25.0989   23.0596 C.2         1 E1B       0.0639
     21 CAS        24.9913  -21.3651   20.9605 C.ar        1 E1B       0.0156
     22 CAT        22.8236  -22.0433   20.0134 C.ar        1 E1B       0.0678
     23 CAU        17.3401  -24.9979   21.7787 C.ar        1 E1B       0.0111
     24 CAV        20.9766  -23.3511   19.0382 C.ar        1 E1B       0.1682
     25 CAW        19.1600  -24.2405   20.3276 C.ar        1 E1B       0.0354
     26 CAY        18.4941  -24.7193   19.1662 C.ar        1 E1B       0.0121
     27 H1         20.9156  -23.8491   14.6020 H           1 E1B       0.1131
     28 H2         17.7209  -25.4467   16.5899 H           1 E1B       0.0992
     29 H3         28.4113  -21.3379   20.8553 H           1 E1B       0.1233
     30 H4         22.4374  -20.1620   22.7898 H           1 E1B       0.0590
     31 H5         24.8490  -20.1992   22.7353 H           1 E1B       0.0537
     32 H6         21.1596  -21.2528   21.0821 H           1 E1B       0.0543
     33 H7         15.7475  -25.9159   20.7146 H           1 E1B       0.0637
     34 H8         16.7072  -25.7159   18.5622 H           1 E1B       0.0642
     35 H9         24.7166  -22.5261   19.2078 H           1 E1B       0.0550
     36 H10        19.1116  -24.0257   22.4222 H           1 E1B       0.0650
     37 H11        22.6052  -22.6747   18.1374 H           1 E1B       0.2200
@<TRIPOS>BOND
     1     1     2  ar
     2     6     1  ar
     3     3     2  ar
     4     4     3  ar
     5     5     4  ar
     6    24     4  ar
     7     5     6  ar
     8    26     5  ar
     9    10     7   3
    10    20     8  ar
    11    20     9  ar
    12    21    10   1
    13    11    12  ar
    14    13    11  ar
    15    21    12  ar
    16    22    13  ar
    17    14    15  ar
    18    23    14  ar
    19    15    26  ar
    20    16    21  ar
    21    22    16  ar
    22    23    17  ar
    23    17    25  ar
    24    18    24  ar
    25    25    18  ar
    26    19    22   1
    27    24    19   1
    28    20    23   1
    29    25    26  ar
    30     2    27   1
    31     6    28   1
    32     7    29   1
    33    11    30   1
    34    12    31   1
    35    13    32   1
    36    14    33   1
    37    15    34   1
    38    16    35   1
    39    17    36   1
    40    19    37   1
@<TRIPOS>SUBSTRUCTURE
     1  E1B      2

