@<TRIPOS>MOLECULE
3pe2_ligand_046
    37    40
SMALL
GAST_HUCK
****
This file was generated by PARSER (from files_GN.cpp)

@<TRIPOS>ATOM
      1 N1         23.9384  -21.5956   17.4078 N.ar        1 E1B      -0.2566
      2 C2         23.6393  -20.3400   16.9851 C.ar        1 E1B       0.0922
      3 N3         23.2701  -20.1295   15.7006 N.ar        1 E1B      -0.2517
      4 C4         23.2047  -21.1282   14.7753 C.ar        1 E1B       0.1245
      5 C5         23.5084  -22.4657   15.1781 C.ar        1 E1B       0.0502
      6 C6         23.8949  -22.6388   16.5374 C.ar        1 E1B       0.0434
      7 CAA        19.1726  -15.3530   15.0410 C.1         1 E1B      -0.1140
      8 OAB        23.8324  -26.6238   10.2630 O.co2       1 E1B      -0.5601
      9 OAC        22.1091  -27.6284   11.4326 O.co2       1 E1B      -0.5601
     10 CAD        20.1995  -15.8981   14.7662 C.1         1 E1B      -0.0725
     11 CAE        23.7549  -16.5986   14.5218 C.ar        1 E1B      -0.0695
     12 CAG        22.5535  -15.9349   14.8413 C.ar        1 E1B      -0.0574
     13 CAH        23.7234  -17.8301   13.8506 C.ar        1 E1B      -0.0371
     14 CAI        23.3987  -25.8887   13.5685 C.ar        1 E1B      -0.0469
     15 CAJ        23.5858  -24.8932   14.5410 C.ar        1 E1B      -0.0482
     16 CAL        21.2947  -17.7386   13.7758 C.ar        1 E1B      -0.0223
     17 CAM        22.8700  -24.1764   11.9112 C.ar        1 E1B      -0.0324
     18 NAP        22.7023  -21.8999   12.5880 N.ar        1 E1B      -0.2773
     19 NAQ        22.4329  -19.6555   12.9104 N.pl3       1 E1B      -0.2490
     20 CAR        22.9065  -26.5491   11.2552 C.2         1 E1B       0.0639
     21 CAS        21.3169  -16.4988   14.4639 C.ar        1 E1B       0.0156
     22 CAT        22.4968  -18.4247   13.4992 C.ar        1 E1B       0.0678
     23 CAU        23.0611  -25.5413   12.2402 C.ar        1 E1B       0.0111
     24 CAV        22.7987  -20.8556   13.4459 C.ar        1 E1B       0.1682
     25 CAW        22.9876  -23.1888   12.9078 C.ar        1 E1B       0.0354
     26 CAY        23.3799  -23.5248   14.2331 C.ar        1 E1B       0.0121
     27 H1         23.6804  -19.5496   17.6330 H           1 E1B       0.1131
     28 H2         24.1359  -23.5489   16.9144 H           1 E1B       0.0992
     29 H3         18.3748  -14.9341   15.2497 H           1 E1B       0.1233
     30 H4         24.6543  -16.1911   14.8083 H           1 E1B       0.0590
     31 H5         22.5980  -15.0487   15.3532 H           1 E1B       0.0537
     32 H6         24.6101  -18.3123   13.6519 H           1 E1B       0.0543
     33 H7         23.5725  -26.8650   13.8242 H           1 E1B       0.0637
     34 H8         23.8625  -25.2056   15.4783 H           1 E1B       0.0642
     35 H9         20.3994  -18.1631   13.5102 H           1 E1B       0.0550
     36 H10        22.5787  -23.9022   10.9578 H           1 E1B       0.0650
     37 H11        22.0007  -19.6954   12.0417 H           1 E1B       0.2200
@<TRIPOS>BOND
     1     1     2  ar
     2     6     1  ar
     3     3     2  ar
     4     4     3  ar
     5     5     4  ar
     6    24     4  ar
     7     5     6  ar
     8    26     5  ar
     9    10     7   3
    10    20     8  ar
    11    20     9  ar
    12    21    10   1
    13    11    12  ar
    14    13    11  ar
    15    21    12  ar
    16    22    13  ar
    17    14    15  ar
    18    23    14  ar
    19    15    26  ar
    20    16    21  ar
    21    22    16  ar
    22    23    17  ar
    23    17    25  ar
    24    18    24  ar
    25    25    18  ar
    26    19    22   1
    27    24    19   1
    28    20    23   1
    29    25    26  ar
    30     2    27   1
    31     6    28   1
    32     7    29   1
    33    11    30   1
    34    12    31   1
    35    13    32   1
    36    14    33   1
    37    15    34   1
    38    16    35   1
    39    17    36   1
    40    19    37   1
@<TRIPOS>SUBSTRUCTURE
     1  E1B      2

