@<TRIPOS>MOLECULE
3pe2_ligand_032
    37    40
SMALL
GAST_HUCK
****
This file was generated by PARSER (from files_GN.cpp)

@<TRIPOS>ATOM
      1 N1         22.1071  -30.6923   22.2357 N.ar        1 E1B      -0.2566
      2 C2         22.3682  -30.8262   20.9153 C.ar        1 E1B       0.0922
      3 N3         21.5334  -31.5655   20.1523 N.ar        1 E1B      -0.2517
      4 C4         20.4438  -32.2046   20.6549 C.ar        1 E1B       0.1245
      5 C5         20.1980  -32.1620   22.0601 C.ar        1 E1B       0.0502
      6 C6         21.0578  -31.3257   22.8126 C.ar        1 E1B       0.0434
      7 CAA        22.5539  -28.1662   17.1550 C.1         1 E1B      -0.1140
      8 OAB        14.6060  -35.1564   23.4704 O.co2       1 E1B      -0.5601
      9 OAC        15.8519  -35.9158   25.2375 O.co2       1 E1B      -0.5601
     10 CAD        22.1408  -29.2725   16.9572 C.1         1 E1B      -0.0725
     11 CAE        21.5386  -32.4862   15.3593 C.ar        1 E1B      -0.0695
     12 CAG        22.0266  -31.1861   15.5678 C.ar        1 E1B      -0.0574
     13 CAH        20.7391  -33.1023   16.3337 C.ar        1 E1B      -0.0371
     14 CAI        17.7864  -33.8111   24.4872 C.ar        1 E1B      -0.0469
     15 CAJ        18.8724  -33.0529   24.0089 C.ar        1 E1B      -0.0482
     16 CAL        20.8987  -31.1123   17.7207 C.ar        1 E1B      -0.0223
     17 CAM        17.2217  -34.4227   22.2088 C.ar        1 E1B      -0.0324
     18 NAP        18.5530  -33.6178   20.3897 N.ar        1 E1B      -0.2773
     19 NAQ        19.6136  -33.0435   18.4522 N.pl3       1 E1B      -0.2490
     20 CAR        15.8111  -35.2171   24.0804 C.2         1 E1B       0.0639
     21 CAS        21.6973  -30.4835   16.7527 C.ar        1 E1B       0.0156
     22 CAT        20.4313  -32.4328   17.5425 C.ar        1 E1B       0.0678
     23 CAU        16.9292  -34.4898   23.5924 C.ar        1 E1B       0.0111
     24 CAV        19.5662  -32.9267   19.8069 C.ar        1 E1B       0.1682
     25 CAW        18.3073  -33.6608   21.7239 C.ar        1 E1B       0.0354
     26 CAY        19.1399  -32.9345   22.6194 C.ar        1 E1B       0.0121
     27 H1         23.1655  -30.3525   20.4907 H           1 E1B       0.1131
     28 H2         20.9145  -31.1628   23.8065 H           1 E1B       0.0992
     29 H3         22.8702  -27.3114   17.3106 H           1 E1B       0.1233
     30 H4         21.7754  -32.9862   14.4961 H           1 E1B       0.0590
     31 H5         22.6072  -30.7582   14.8447 H           1 E1B       0.0537
     32 H6         20.3864  -34.0447   16.1648 H           1 E1B       0.0543
     33 H7         17.6076  -33.8388   25.4956 H           1 E1B       0.0637
     34 H8         19.4562  -32.5805   24.6999 H           1 E1B       0.0642
     35 H9         20.6629  -30.6266   18.5934 H           1 E1B       0.0550
     36 H10        16.6370  -34.9263   21.5369 H           1 E1B       0.0650
     37 H11        18.9502  -33.6435   18.0690 H           1 E1B       0.2200
@<TRIPOS>BOND
     1     1     2  ar
     2     6     1  ar
     3     3     2  ar
     4     4     3  ar
     5     5     4  ar
     6    24     4  ar
     7     5     6  ar
     8    26     5  ar
     9    10     7   3
    10    20     8  ar
    11    20     9  ar
    12    21    10   1
    13    11    12  ar
    14    13    11  ar
    15    21    12  ar
    16    22    13  ar
    17    14    15  ar
    18    23    14  ar
    19    15    26  ar
    20    16    21  ar
    21    22    16  ar
    22    23    17  ar
    23    17    25  ar
    24    18    24  ar
    25    25    18  ar
    26    19    22   1
    27    24    19   1
    28    20    23   1
    29    25    26  ar
    30     2    27   1
    31     6    28   1
    32     7    29   1
    33    11    30   1
    34    12    31   1
    35    13    32   1
    36    14    33   1
    37    15    34   1
    38    16    35   1
    39    17    36   1
    40    19    37   1
@<TRIPOS>SUBSTRUCTURE
     1  E1B      2

