@<TRIPOS>MOLECULE
3pe2_ligand_011
    37    40
SMALL
GAST_HUCK
****
This file was generated by PARSER (from files_GN.cpp)

@<TRIPOS>ATOM
      1 N1         24.0335  -26.6030   10.5012 N.ar        1 E1B      -0.2566
      2 C2         23.7986  -27.8855   10.8574 C.ar        1 E1B       0.0922
      3 N3         23.4786  -28.1663   12.1429 N.ar        1 E1B      -0.2517
      4 C4         23.3927  -27.2096   13.1055 C.ar        1 E1B       0.1245
      5 C5         23.7125  -25.8565   12.7796 C.ar        1 E1B       0.0502
      6 C6         24.0103  -25.5998   11.4156 C.ar        1 E1B       0.0434
      7 CAA        23.6763  -34.4920   14.5154 C.1         1 E1B      -0.1140
      8 OAB        22.9764  -22.2527   18.1568 O.co2       1 E1B      -0.5601
      9 OAC        24.6300  -21.0370   17.0977 O.co2       1 E1B      -0.5601
     10 CAD        23.2224  -33.4342   14.1946 C.1         1 E1B      -0.0725
     11 CAE        21.3915  -31.0104   12.2227 C.ar        1 E1B      -0.0695
     12 CAG        21.9708  -32.2266   12.6232 C.ar        1 E1B      -0.0574
     13 CAH        21.5488  -29.8580   13.0107 C.ar        1 E1B      -0.0371
     14 CAI        24.1299  -22.6225   14.7050 C.ar        1 E1B      -0.0469
     15 CAJ        24.0984  -23.5222   13.6267 C.ar        1 E1B      -0.0482
     16 CAL        22.8832  -31.1286   14.6076 C.ar        1 E1B      -0.0223
     17 CAM        23.4002  -24.3835   16.2072 C.ar        1 E1B      -0.0324
     18 NAP        23.0352  -26.5767   15.3640 N.ar        1 E1B      -0.2773
     19 NAQ        22.6098  -28.7637   14.8910 N.pl3       1 E1B      -0.2490
     20 CAR        23.8180  -22.1238   17.0991 C.2         1 E1B       0.0639
     21 CAS        22.7081  -32.2934   13.8251 C.ar        1 E1B       0.0156
     22 CAT        22.3462  -29.8961   14.1762 C.ar        1 E1B       0.0678
     23 CAU        23.7807  -23.0341   16.0110 C.ar        1 E1B       0.0111
     24 CAV        23.0056  -27.5499   14.4253 C.ar        1 E1B       0.1682
     25 CAW        23.3760  -25.2855   15.1258 C.ar        1 E1B       0.0354
     26 CAY        23.7245  -24.8750   13.8112 C.ar        1 E1B       0.0121
     27 H1         23.8383  -28.6333   10.1645 H           1 E1B       0.1131
     28 H2         24.2106  -24.6615   11.0749 H           1 E1B       0.0992
     29 H3         24.0209  -35.3099   14.7567 H           1 E1B       0.1233
     30 H4         20.8648  -30.9556   11.3489 H           1 E1B       0.0590
     31 H5         21.8454  -33.0550   12.0325 H           1 E1B       0.0537
     32 H6         21.1170  -28.9844   12.7066 H           1 E1B       0.0543
     33 H7         24.4147  -21.6572   14.5238 H           1 E1B       0.0637
     34 H8         24.3784  -23.1714   12.7136 H           1 E1B       0.0642
     35 H9         23.4378  -31.1619   15.4669 H           1 E1B       0.0550
     36 H10        23.1682  -24.7244   17.1449 H           1 E1B       0.0650
     37 H11        22.5303  -28.8431   15.8558 H           1 E1B       0.2200
@<TRIPOS>BOND
     1     1     2  ar
     2     6     1  ar
     3     3     2  ar
     4     4     3  ar
     5     5     4  ar
     6    24     4  ar
     7     5     6  ar
     8    26     5  ar
     9    10     7   3
    10    20     8  ar
    11    20     9  ar
    12    21    10   1
    13    11    12  ar
    14    13    11  ar
    15    21    12  ar
    16    22    13  ar
    17    14    15  ar
    18    23    14  ar
    19    15    26  ar
    20    16    21  ar
    21    22    16  ar
    22    23    17  ar
    23    17    25  ar
    24    18    24  ar
    25    25    18  ar
    26    19    22   1
    27    24    19   1
    28    20    23   1
    29    25    26  ar
    30     2    27   1
    31     6    28   1
    32     7    29   1
    33    11    30   1
    34    12    31   1
    35    13    32   1
    36    14    33   1
    37    15    34   1
    38    16    35   1
    39    17    36   1
    40    19    37   1
@<TRIPOS>SUBSTRUCTURE
     1  E1B      2

