@<TRIPOS>MOLECULE
3pe2_ligand_047
    37    40
SMALL
GAST_HUCK
****
This file was generated by PARSER (from files_GN.cpp)

@<TRIPOS>ATOM
      1 N1         23.6741  -21.3552   11.5317 N.ar        1 E1B      -0.2566
      2 C2         23.9239  -22.2371   10.5377 C.ar        1 E1B       0.0922
      3 N3         23.5620  -23.5333   10.6887 N.ar        1 E1B      -0.2517
      4 C4         22.9216  -23.9783   11.8047 C.ar        1 E1B       0.1245
      5 C5         22.6302  -23.0727   12.8667 C.ar        1 E1B       0.0502
      6 C6         23.0577  -21.7347   12.6764 C.ar        1 E1B       0.0434
      7 CAA        24.4159  -31.7459   11.5849 C.1         1 E1B      -0.1140
      8 OAB        20.4630  -24.9345   18.6733 O.co2       1 E1B      -0.5601
      9 OAC        18.9245  -26.0088   17.2853 O.co2       1 E1B      -0.5601
     10 CAD        23.6945  -30.8383   11.3063 C.1         1 E1B      -0.0725
     11 CAE        20.6850  -29.1301   10.2258 C.ar        1 E1B      -0.0695
     12 CAG        21.5774  -30.1681   10.5492 C.ar        1 E1B      -0.0574
     13 CAH        21.0778  -27.7885   10.3827 C.ar        1 E1B      -0.0371
     14 CAI        21.0195  -23.2977   16.2885 C.ar        1 E1B      -0.0469
     15 CAJ        21.6464  -22.7473   15.1581 C.ar        1 E1B      -0.0482
     16 CAL        23.2819  -28.5229   11.1357 C.ar        1 E1B      -0.0223
     17 CAM        20.8996  -25.4571   15.1749 C.ar        1 E1B      -0.0324
     18 NAP        21.8677  -25.7341   13.0245 N.ar        1 E1B      -0.2773
     19 NAQ        22.7893  -26.1970   10.9026 N.pl3       1 E1B      -0.2490
     20 CAR        19.9949  -25.1956   17.4312 C.2         1 E1B       0.0639
     21 CAS        22.8785  -29.8693   11.0079 C.ar        1 E1B       0.0156
     22 CAT        22.3744  -27.4836   10.8480 C.ar        1 E1B       0.0678
     23 CAU        20.6315  -24.6529   16.3023 C.ar        1 E1B       0.0111
     24 CAV        22.5210  -25.3283   11.9061 C.ar        1 E1B       0.1682
     25 CAW        21.5725  -24.9171   14.0631 C.ar        1 E1B       0.0354
     26 CAY        21.9536  -23.5458   14.0270 C.ar        1 E1B       0.0121
     27 H1         24.3880  -21.9256    9.6845 H           1 E1B       0.1131
     28 H2         22.9131  -21.0163   13.3828 H           1 E1B       0.0992
     29 H3         24.9667  -32.4509   11.8027 H           1 E1B       0.1233
     30 H4         19.7587  -29.3553    9.8551 H           1 E1B       0.0590
     31 H5         21.2779  -31.1390   10.4200 H           1 E1B       0.0537
     32 H6         20.4274  -27.0397   10.1265 H           1 E1B       0.0543
     33 H7         20.8289  -22.6939   17.0945 H           1 E1B       0.0637
     34 H8         21.8925  -21.7590   15.2002 H           1 E1B       0.0642
     35 H9         24.2326  -28.2881   11.4368 H           1 E1B       0.0550
     36 H10        20.6477  -26.4502   15.1778 H           1 E1B       0.0650
     37 H11        23.3144  -25.8760   10.1521 H           1 E1B       0.2200
@<TRIPOS>BOND
     1     1     2  ar
     2     6     1  ar
     3     3     2  ar
     4     4     3  ar
     5     5     4  ar
     6    24     4  ar
     7     5     6  ar
     8    26     5  ar
     9    10     7   3
    10    20     8  ar
    11    20     9  ar
    12    21    10   1
    13    11    12  ar
    14    13    11  ar
    15    21    12  ar
    16    22    13  ar
    17    14    15  ar
    18    23    14  ar
    19    15    26  ar
    20    16    21  ar
    21    22    16  ar
    22    23    17  ar
    23    17    25  ar
    24    18    24  ar
    25    25    18  ar
    26    19    22   1
    27    24    19   1
    28    20    23   1
    29    25    26  ar
    30     2    27   1
    31     6    28   1
    32     7    29   1
    33    11    30   1
    34    12    31   1
    35    13    32   1
    36    14    33   1
    37    15    34   1
    38    16    35   1
    39    17    36   1
    40    19    37   1
@<TRIPOS>SUBSTRUCTURE
     1  E1B      2

