@<TRIPOS>MOLECULE
3pe2_ligand_045
    37    40
SMALL
GAST_HUCK
****
This file was generated by PARSER (from files_GN.cpp)

@<TRIPOS>ATOM
      1 N1         19.0105  -27.8365   23.0150 N.ar        1 E1B      -0.2566
      2 C2         18.3942  -28.6434   22.1205 C.ar        1 E1B       0.0922
      3 N3         18.3997  -29.9811   22.3172 N.ar        1 E1B      -0.2517
      4 C4         19.0035  -30.5527   23.3937 C.ar        1 E1B       0.1245
      5 C5         19.6610  -29.7333   24.3615 C.ar        1 E1B       0.0502
      6 C6         19.6373  -28.3380   24.1071 C.ar        1 E1B       0.0434
      7 CAA        14.9778  -37.3824   23.6419 C.1         1 E1B      -0.1140
      8 OAB        21.4424  -32.4564   29.9602 O.co2       1 E1B      -0.5601
      9 OAC        23.2522  -33.0279   28.5987 O.co2       1 E1B      -0.5601
     10 CAD        15.9823  -36.8246   23.3107 C.1         1 E1B      -0.0725
     11 CAE        19.3086  -36.2321   21.9609 C.ar        1 E1B      -0.0695
     12 CAG        18.1560  -36.9184   22.3898 C.ar        1 E1B      -0.0574
     13 CAH        19.3813  -34.8312   22.0736 C.ar        1 E1B      -0.0371
     14 CAI        21.5452  -30.3240   27.6099 C.ar        1 E1B      -0.0469
     15 CAJ        20.9585  -29.6413   26.5272 C.ar        1 E1B      -0.0482
     16 CAL        17.1607  -34.7977   23.0729 C.ar        1 E1B      -0.0223
     17 CAM        20.7977  -32.4390   26.6780 C.ar        1 E1B      -0.0324
     18 NAP        19.5718  -32.4871   24.6478 N.ar        1 E1B      -0.2773
     19 NAQ        18.3512  -32.7459   22.6393 N.pl3       1 E1B      -0.2490
     20 CAR        22.0587  -32.4155   28.7589 C.2         1 E1B       0.0639
     21 CAS        17.0716  -36.2027   22.9452 C.ar        1 E1B       0.0156
     22 CAT        18.3139  -34.1055   22.6415 C.ar        1 E1B       0.0678
     23 CAU        21.4702  -31.7288   27.6891 C.ar        1 E1B       0.0111
     24 CAV        18.9692  -31.9557   23.5557 C.ar        1 E1B       0.1682
     25 CAW        20.2103  -31.7575   25.5962 C.ar        1 E1B       0.0354
     26 CAY        20.2819  -30.3403   25.4920 C.ar        1 E1B       0.0121
     27 H1         17.9212  -28.2431   21.3111 H           1 E1B       0.1131
     28 H2         20.0766  -27.6677   24.7360 H           1 E1B       0.0992
     29 H3         14.1969  -37.7996   23.9035 H           1 E1B       0.1233
     30 H4         20.0857  -36.7466   21.5399 H           1 E1B       0.0590
     31 H5         18.1222  -37.9374   22.2833 H           1 E1B       0.0537
     32 H6         20.2039  -34.3392   21.7191 H           1 E1B       0.0543
     33 H7         22.0347  -29.7907   28.3338 H           1 E1B       0.0637
     34 H8         21.0467  -28.6253   26.5098 H           1 E1B       0.0642
     35 H9         16.3772  -34.2672   23.4652 H           1 E1B       0.0550
     36 H10        20.7217  -33.4569   26.7325 H           1 E1B       0.0650
     37 H11        17.9773  -32.3036   21.8630 H           1 E1B       0.2200
@<TRIPOS>BOND
     1     1     2  ar
     2     6     1  ar
     3     3     2  ar
     4     4     3  ar
     5     5     4  ar
     6    24     4  ar
     7     5     6  ar
     8    26     5  ar
     9    10     7   3
    10    20     8  ar
    11    20     9  ar
    12    21    10   1
    13    11    12  ar
    14    13    11  ar
    15    21    12  ar
    16    22    13  ar
    17    14    15  ar
    18    23    14  ar
    19    15    26  ar
    20    16    21  ar
    21    22    16  ar
    22    23    17  ar
    23    17    25  ar
    24    18    24  ar
    25    25    18  ar
    26    19    22   1
    27    24    19   1
    28    20    23   1
    29    25    26  ar
    30     2    27   1
    31     6    28   1
    32     7    29   1
    33    11    30   1
    34    12    31   1
    35    13    32   1
    36    14    33   1
    37    15    34   1
    38    16    35   1
    39    17    36   1
    40    19    37   1
@<TRIPOS>SUBSTRUCTURE
     1  E1B      2

