@<TRIPOS>MOLECULE
3pe2_ligand_053
    37    40
SMALL
GAST_HUCK
****
This file was generated by PARSER (from files_GN.cpp)

@<TRIPOS>ATOM
      1 N1         20.3063  -30.5202   25.4200 N.ar        1 E1B      -0.2566
      2 C2         20.9535  -29.6264   24.6289 C.ar        1 E1B       0.0922
      3 N3         21.0320  -29.8544   23.2892 N.ar        1 E1B      -0.2517
      4 C4         20.4808  -30.9570   22.7147 C.ar        1 E1B       0.1245
      5 C5         19.8187  -31.9286   23.5209 C.ar        1 E1B       0.0502
      6 C6         19.7596  -31.6510   24.9064 C.ar        1 E1B       0.0434
      7 CAA        21.7146  -27.8108   15.2937 C.1         1 E1B      -0.1140
      8 OAB        17.7368  -36.5493   19.4524 O.co2       1 E1B      -0.5601
      9 OAC        17.6145  -37.7253   21.4459 O.co2       1 E1B      -0.5601
     10 CAD        21.8529  -28.6846   16.0939 C.1         1 E1B      -0.0725
     11 CAE        22.6912  -31.9390   17.4495 C.ar        1 E1B      -0.0695
     12 CAG        22.5380  -30.8876   16.5262 C.ar        1 E1B      -0.0574
     13 CAH        22.2998  -31.7640   18.7955 C.ar        1 E1B      -0.0371
     14 CAI        18.2270  -35.3328   22.9187 C.ar        1 E1B      -0.0469
     15 CAJ        18.6997  -34.1976   23.6090 C.ar        1 E1B      -0.0482
     16 CAL        21.6145  -29.4766   18.3015 C.ar        1 E1B      -0.0223
     17 CAM        18.7881  -34.2882   20.8085 C.ar        1 E1B      -0.0324
     18 NAP        20.0079  -32.2619   20.7918 N.ar        1 E1B      -0.2773
     19 NAQ        21.3095  -30.3287   20.5168 N.pl3       1 E1B      -0.2490
     20 CAR        17.8341  -36.5428   20.8076 C.2         1 E1B       0.0639
     21 CAS        22.0003  -29.6555   16.9539 C.ar        1 E1B       0.0156
     22 CAT        21.7181  -30.5405   19.2255 C.ar        1 E1B       0.0678
     23 CAU        18.2612  -35.3929   21.5074 C.ar        1 E1B       0.0111
     24 CAV        20.6115  -31.1745   21.3238 C.ar        1 E1B       0.1682
     25 CAW        19.3469  -33.2008   21.5063 C.ar        1 E1B       0.0354
     26 CAY        19.2829  -33.1039   22.9207 C.ar        1 E1B       0.0121
     27 H1         21.3693  -28.8021   25.0403 H           1 E1B       0.1131
     28 H2         19.2709  -32.2703   25.5601 H           1 E1B       0.0992
     29 H3         21.5971  -27.1340   14.6760 H           1 E1B       0.1233
     30 H4         23.1062  -32.8291   17.1509 H           1 E1B       0.0590
     31 H5         22.8165  -31.0402   15.5597 H           1 E1B       0.0537
     32 H6         22.4604  -32.5315   19.4417 H           1 E1B       0.0543
     33 H7         17.8408  -36.1121   23.4608 H           1 E1B       0.0637
     34 H8         18.6456  -34.2084   24.6304 H           1 E1B       0.0642
     35 H9         21.2279  -28.5866   18.6108 H           1 E1B       0.0550
     36 H10        18.8271  -34.2860   19.7874 H           1 E1B       0.0650
     37 H11        21.5467  -29.4714   20.9048 H           1 E1B       0.2200
@<TRIPOS>BOND
     1     1     2  ar
     2     6     1  ar
     3     3     2  ar
     4     4     3  ar
     5     5     4  ar
     6    24     4  ar
     7     5     6  ar
     8    26     5  ar
     9    10     7   3
    10    20     8  ar
    11    20     9  ar
    12    21    10   1
    13    11    12  ar
    14    13    11  ar
    15    21    12  ar
    16    22    13  ar
    17    14    15  ar
    18    23    14  ar
    19    15    26  ar
    20    16    21  ar
    21    22    16  ar
    22    23    17  ar
    23    17    25  ar
    24    18    24  ar
    25    25    18  ar
    26    19    22   1
    27    24    19   1
    28    20    23   1
    29    25    26  ar
    30     2    27   1
    31     6    28   1
    32     7    29   1
    33    11    30   1
    34    12    31   1
    35    13    32   1
    36    14    33   1
    37    15    34   1
    38    16    35   1
    39    17    36   1
    40    19    37   1
@<TRIPOS>SUBSTRUCTURE
     1  E1B      2

