@<TRIPOS>MOLECULE
3pe2_ligand_058
    37    40
SMALL
GAST_HUCK
****
This file was generated by PARSER (from files_GN.cpp)

@<TRIPOS>ATOM
      1 N1         26.6364  -33.0682   18.0192 N.ar        1 E1B      -0.2566
      2 C2         25.7882  -33.2846   19.0492 C.ar        1 E1B       0.0922
      3 N3         24.4739  -33.5430   18.7945 N.ar        1 E1B      -0.2517
      4 C4         23.9681  -33.5697   17.5294 C.ar        1 E1B       0.1245
      5 C5         24.8308  -33.2865   16.4250 C.ar        1 E1B       0.0502
      6 C6         26.1964  -33.0651   16.7382 C.ar        1 E1B       0.0434
      7 CAA        19.8158  -32.2913   23.4620 C.1         1 E1B      -0.1140
      8 OAB        22.8497  -32.1553   10.3405 O.co2       1 E1B      -0.5601
      9 OAC        21.4907  -33.9570   10.9287 O.co2       1 E1B      -0.5601
     10 CAD        20.4077  -32.9827   22.6909 C.1         1 E1B      -0.0725
     11 CAE        22.6535  -35.5494   21.4320 C.ar        1 E1B      -0.0695
     12 CAG        21.9345  -34.7432   22.3317 C.ar        1 E1B      -0.0574
     13 CAH        22.5486  -35.3184   20.0488 C.ar        1 E1B      -0.0371
     14 CAI        24.4281  -32.8027   12.6861 C.ar        1 E1B      -0.0469
     15 CAJ        25.0424  -32.8891   13.9467 C.ar        1 E1B      -0.0482
     16 CAL        20.9664  -33.5092   20.4605 C.ar        1 E1B      -0.0223
     17 CAM        22.2997  -33.4478   13.6787 C.ar        1 E1B      -0.0324
     18 NAP        22.1329  -33.7306   16.0311 N.ar        1 E1B      -0.2773
     19 NAQ        21.6204  -34.0244   18.2226 N.pl3       1 E1B      -0.2490
     20 CAR        22.4499  -33.0547   11.2699 C.2         1 E1B       0.0639
     21 CAS        21.0758  -33.7246   21.8543 C.ar        1 E1B       0.0156
     22 CAT        21.7411  -34.2691   19.5531 C.ar        1 E1B       0.0678
     23 CAU        23.0594  -33.1101   12.5368 C.ar        1 E1B       0.0111
     24 CAV        22.5898  -33.7923   17.3029 C.ar        1 E1B       0.1682
     25 CAW        22.9060  -33.4749   14.9489 C.ar        1 E1B       0.0354
     26 CAY        24.2956  -33.2192   15.1065 C.ar        1 E1B       0.0121
     27 H1         26.1289  -33.2445   20.0114 H           1 E1B       0.1131
     28 H2         26.8856  -32.8669   16.0108 H           1 E1B       0.0992
     29 H3         19.3653  -31.7476   24.0594 H           1 E1B       0.1233
     30 H4         23.2516  -36.2989   21.7831 H           1 E1B       0.0590
     31 H5         22.0312  -34.9186   23.3329 H           1 E1B       0.0537
     32 H6         23.0512  -35.9276   19.3995 H           1 E1B       0.0543
     33 H7         24.9951  -32.5490   11.8726 H           1 E1B       0.0637
     34 H8         26.0369  -32.6930   13.9912 H           1 E1B       0.0642
     35 H9         20.3489  -32.7750   20.1000 H           1 E1B       0.0550
     36 H10        21.3019  -33.6501   13.5933 H           1 E1B       0.0650
     37 H11        20.7077  -33.9679   17.8908 H           1 E1B       0.2200
@<TRIPOS>BOND
     1     1     2  ar
     2     6     1  ar
     3     3     2  ar
     4     4     3  ar
     5     5     4  ar
     6    24     4  ar
     7     5     6  ar
     8    26     5  ar
     9    10     7   3
    10    20     8  ar
    11    20     9  ar
    12    21    10   1
    13    11    12  ar
    14    13    11  ar
    15    21    12  ar
    16    22    13  ar
    17    14    15  ar
    18    23    14  ar
    19    15    26  ar
    20    16    21  ar
    21    22    16  ar
    22    23    17  ar
    23    17    25  ar
    24    18    24  ar
    25    25    18  ar
    26    19    22   1
    27    24    19   1
    28    20    23   1
    29    25    26  ar
    30     2    27   1
    31     6    28   1
    32     7    29   1
    33    11    30   1
    34    12    31   1
    35    13    32   1
    36    14    33   1
    37    15    34   1
    38    16    35   1
    39    17    36   1
    40    19    37   1
@<TRIPOS>SUBSTRUCTURE
     1  E1B      2

