@<TRIPOS>MOLECULE
3pe2_ligand_001
    37    40
SMALL
GAST_HUCK
****
This file was generated by PARSER (from files_GN.cpp)

@<TRIPOS>ATOM
      1 N1         21.1751  -39.4013   20.7117 N.ar        1 E1B      -0.2566
      2 C2         22.0370  -38.4919   20.1901 C.ar        1 E1B       0.0922
      3 N3         21.7775  -37.1725   20.3366 N.ar        1 E1B      -0.2517
      4 C4         20.6788  -36.7202   20.9937 C.ar        1 E1B       0.1245
      5 C5         19.7347  -37.6469   21.5319 C.ar        1 E1B       0.0502
      6 C6         20.0524  -39.0184   21.3616 C.ar        1 E1B       0.0434
      7 CAA        24.5271  -29.6255   19.8397 C.1         1 E1B      -0.1140
      8 OAB        15.3761  -35.7270   25.7371 O.co2       1 E1B      -0.5601
      9 OAC        14.2040  -35.0429   23.8528 O.co2       1 E1B      -0.5601
     10 CAD        23.5355  -30.2408   20.0876 C.1         1 E1B      -0.0725
     11 CAE        20.0247  -30.8936   20.6495 C.ar        1 E1B      -0.0695
     12 CAG        21.2277  -30.1900   20.4793 C.ar        1 E1B      -0.0574
     13 CAH        20.0310  -32.3000   20.6874 C.ar        1 E1B      -0.0371
     14 CAI        16.4558  -37.4264   23.4445 C.ar        1 E1B      -0.0469
     15 CAJ        17.5519  -37.9843   22.7585 C.ar        1 E1B      -0.0482
     16 CAL        22.4386  -32.3142   20.4022 C.ar        1 E1B      -0.0223
     17 CAM        17.3243  -35.1970   23.0241 C.ar        1 E1B      -0.0324
     18 NAP        19.3575  -34.9315   21.8281 N.ar        1 E1B      -0.2773
     19 NAQ        21.3235  -34.4125   20.6246 N.pl3       1 E1B      -0.2490
     20 CAR        15.3557  -35.4803   24.4084 C.2         1 E1B       0.0639
     21 CAS        22.4427  -30.8969   20.3345 C.ar        1 E1B       0.0156
     22 CAT        21.2359  -33.0394   20.5970 C.ar        1 E1B       0.0678
     23 CAU        16.3522  -36.0305   23.5979 C.ar        1 E1B       0.0111
     24 CAV        20.4597  -35.3278   21.1441 C.ar        1 E1B       0.1682
     25 CAW        18.4249  -35.7594   22.3465 C.ar        1 E1B       0.0354
     26 CAY        18.5704  -37.1685   22.2055 C.ar        1 E1B       0.0121
     27 H1         22.8646  -38.8070   19.6855 H           1 E1B       0.1131
     28 H2         19.4504  -39.7566   21.7155 H           1 E1B       0.0992
     29 H3         25.2899  -29.1475   19.6435 H           1 E1B       0.1233
     30 H4         19.1396  -30.3792   20.7162 H           1 E1B       0.0590
     31 H5         21.1965  -29.1695   20.4264 H           1 E1B       0.0537
     32 H6         19.1250  -32.7674   20.7452 H           1 E1B       0.0543
     33 H7         15.7597  -38.0518   23.8614 H           1 E1B       0.0637
     34 H8         17.6044  -38.9964   22.7028 H           1 E1B       0.0642
     35 H9         23.3201  -32.8207   20.3065 H           1 E1B       0.0550
     36 H10        17.2546  -34.1802   23.1309 H           1 E1B       0.0650
     37 H11        22.1433  -34.7821   20.2367 H           1 E1B       0.2200
@<TRIPOS>BOND
     1     1     2  ar
     2     6     1  ar
     3     3     2  ar
     4     4     3  ar
     5     5     4  ar
     6    24     4  ar
     7     5     6  ar
     8    26     5  ar
     9    10     7   3
    10    20     8  ar
    11    20     9  ar
    12    21    10   1
    13    11    12  ar
    14    13    11  ar
    15    21    12  ar
    16    22    13  ar
    17    14    15  ar
    18    23    14  ar
    19    15    26  ar
    20    16    21  ar
    21    22    16  ar
    22    23    17  ar
    23    17    25  ar
    24    18    24  ar
    25    25    18  ar
    26    19    22   1
    27    24    19   1
    28    20    23   1
    29    25    26  ar
    30     2    27   1
    31     6    28   1
    32     7    29   1
    33    11    30   1
    34    12    31   1
    35    13    32   1
    36    14    33   1
    37    15    34   1
    38    16    35   1
    39    17    36   1
    40    19    37   1
@<TRIPOS>SUBSTRUCTURE
     1  E1B      2

