@<TRIPOS>MOLECULE
3pe2_ligand_055
    37    40
SMALL
GAST_HUCK
****
This file was generated by PARSER (from files_GN.cpp)

@<TRIPOS>ATOM
      1 N1         18.8208  -34.1159   18.8006 N.ar        1 E1B      -0.2566
      2 C2         19.2414  -32.8529   18.5649 C.ar        1 E1B       0.0922
      3 N3         19.1014  -31.9161   19.5299 N.ar        1 E1B      -0.2517
      4 C4         18.5473  -32.1975   20.7403 C.ar        1 E1B       0.1245
      5 C5         18.0990  -33.5224   21.0247 C.ar        1 E1B       0.0502
      6 C6         18.2638  -34.4715   19.9832 C.ar        1 E1B       0.0434
      7 CAA        15.5709  -25.4541   23.5322 C.1         1 E1B      -0.1140
      8 OAB        14.3990  -34.1816   26.3412 O.co2       1 E1B      -0.5601
      9 OAC        16.4346  -34.8270   27.2035 O.co2       1 E1B      -0.5601
     10 CAD        16.5569  -26.1106   23.3753 C.1         1 E1B      -0.0725
     11 CAE        19.9778  -27.2770   23.6888 C.ar        1 E1B      -0.0695
     12 CAG        18.8313  -26.4809   23.8541 C.ar        1 E1B      -0.0574
     13 CAH        19.9366  -28.4154   22.8645 C.ar        1 E1B      -0.0371
     14 CAI        16.4316  -35.2613   23.9538 C.ar        1 E1B      -0.0469
     15 CAJ        17.0239  -35.0731   22.6914 C.ar        1 E1B      -0.0482
     16 CAL        17.5937  -27.9841   22.3795 C.ar        1 E1B      -0.0223
     17 CAM        16.8234  -32.9310   24.4961 C.ar        1 E1B      -0.0324
     18 NAP        17.8430  -31.4948   22.8977 N.ar        1 E1B      -0.2773
     19 NAQ        18.7880  -29.9034   21.4094 N.pl3       1 E1B      -0.2490
     20 CAR        15.7190  -34.3934   26.1418 C.2         1 E1B       0.0639
     21 CAS        17.6299  -26.8332   23.2020 C.ar        1 E1B       0.0156
     22 CAT        18.7498  -28.7829   22.1942 C.ar        1 E1B       0.0678
     23 CAU        16.3212  -34.1964   24.8759 C.ar        1 E1B       0.0111
     24 CAV        18.4076  -31.1738   21.7057 C.ar        1 E1B       0.1682
     25 CAW        17.4049  -32.7356   23.2268 C.ar        1 E1B       0.0354
     26 CAY        17.5167  -33.8049   22.2935 C.ar        1 E1B       0.0121
     27 H1         19.6573  -32.6087   17.6664 H           1 E1B       0.1131
     28 H2         17.9710  -35.4425   20.0826 H           1 E1B       0.0992
     29 H3         14.8092  -24.9487   23.6529 H           1 E1B       0.1233
     30 H4         20.8441  -27.0295   24.1718 H           1 E1B       0.0590
     31 H5         18.8833  -25.6559   24.4610 H           1 E1B       0.0537
     32 H6         20.7798  -28.9828   22.7613 H           1 E1B       0.0543
     33 H7         16.0822  -36.1935   24.1901 H           1 E1B       0.0637
     34 H8         17.0807  -35.8820   22.0724 H           1 E1B       0.0642
     35 H9         16.7097  -28.2591   21.9419 H           1 E1B       0.0550
     36 H10        16.7616  -32.1358   25.1380 H           1 E1B       0.0650
     37 H11        19.0998  -29.7691   20.5027 H           1 E1B       0.2200
@<TRIPOS>BOND
     1     1     2  ar
     2     6     1  ar
     3     3     2  ar
     4     4     3  ar
     5     5     4  ar
     6    24     4  ar
     7     5     6  ar
     8    26     5  ar
     9    10     7   3
    10    20     8  ar
    11    20     9  ar
    12    21    10   1
    13    11    12  ar
    14    13    11  ar
    15    21    12  ar
    16    22    13  ar
    17    14    15  ar
    18    23    14  ar
    19    15    26  ar
    20    16    21  ar
    21    22    16  ar
    22    23    17  ar
    23    17    25  ar
    24    18    24  ar
    25    25    18  ar
    26    19    22   1
    27    24    19   1
    28    20    23   1
    29    25    26  ar
    30     2    27   1
    31     6    28   1
    32     7    29   1
    33    11    30   1
    34    12    31   1
    35    13    32   1
    36    14    33   1
    37    15    34   1
    38    16    35   1
    39    17    36   1
    40    19    37   1
@<TRIPOS>SUBSTRUCTURE
     1  E1B      2

