@<TRIPOS>MOLECULE
3pe2_ligand_004
    37    40
SMALL
GAST_HUCK
****
This file was generated by PARSER (from files_GN.cpp)

@<TRIPOS>ATOM
      1 N1         23.8659  -33.0899   20.4431 N.ar        1 E1B      -0.2566
      2 C2         22.6674  -32.9099   21.0419 C.ar        1 E1B       0.0922
      3 N3         21.5346  -32.9012   20.3007 N.ar        1 E1B      -0.2517
      4 C4         21.5372  -33.0677   18.9516 C.ar        1 E1B       0.1245
      5 C5         22.7783  -33.2866   18.2821 C.ar        1 E1B       0.0502
      6 C6         23.9336  -33.3034   19.1054 C.ar        1 E1B       0.0434
      7 CAA        16.9133  -35.8218   23.2028 C.1         1 E1B      -0.1140
      8 OAB        21.6182  -34.9475   12.1292 O.co2       1 E1B      -0.5601
      9 OAC        23.3953  -33.4797   11.7921 O.co2       1 E1B      -0.5601
     10 CAD        17.3749  -34.8685   22.6471 C.1         1 E1B      -0.0725
     11 CAE        18.6627  -31.5171   22.1016 C.ar        1 E1B      -0.0695
     12 CAG        18.1469  -32.6465   22.7642 C.ar        1 E1B      -0.0574
     13 CAH        18.9209  -31.5660   20.7202 C.ar        1 E1B      -0.0371
     14 CAI        23.8777  -33.8550   14.6983 C.ar        1 E1B      -0.0469
     15 CAJ        23.9542  -33.6662   16.0883 C.ar        1 E1B      -0.0482
     16 CAL        18.1408  -33.8780   20.6541 C.ar        1 E1B      -0.0223
     17 CAM        21.4579  -33.6982   14.8055 C.ar        1 E1B      -0.0324
     18 NAP        20.3921  -33.2483   16.8818 N.ar        1 E1B      -0.2773
     19 NAQ        19.0606  -32.8713   18.6991 N.pl3       1 E1B      -0.2490
     20 CAR        22.5525  -34.1112   12.6463 C.2         1 E1B       0.0639
     21 CAS        17.8742  -33.8294   22.0423 C.ar        1 E1B       0.0156
     22 CAT        18.6945  -32.7556   19.9979 C.ar        1 E1B       0.0678
     23 CAU        22.6283  -33.8911   14.0411 C.ar        1 E1B       0.0111
     24 CAV        20.3223  -33.0382   18.2181 C.ar        1 E1B       0.1682
     25 CAW        21.5355  -33.4758   16.1939 C.ar        1 E1B       0.0354
     26 CAY        22.7873  -33.4802   16.8706 C.ar        1 E1B       0.0121
     27 H1         22.6079  -32.7643   22.0503 H           1 E1B       0.1131
     28 H2         24.8602  -33.4743   18.7253 H           1 E1B       0.0992
     29 H3         16.5591  -36.5549   23.6310 H           1 E1B       0.1233
     30 H4         18.8613  -30.6645   22.6281 H           1 E1B       0.0590
     31 H5         17.9625  -32.5913   23.7718 H           1 E1B       0.0537
     32 H6         19.3184  -30.7480   20.2534 H           1 E1B       0.0543
     33 H7         24.7445  -33.9990   14.1711 H           1 E1B       0.0637
     34 H8         24.8784  -33.6737   16.5126 H           1 E1B       0.0642
     35 H9         17.9792  -34.7413   20.1227 H           1 E1B       0.0550
     36 H10        20.5443  -33.6777   14.3515 H           1 E1B       0.0650
     37 H11        18.3402  -33.0038   18.0590 H           1 E1B       0.2200
@<TRIPOS>BOND
     1     1     2  ar
     2     6     1  ar
     3     3     2  ar
     4     4     3  ar
     5     5     4  ar
     6    24     4  ar
     7     5     6  ar
     8    26     5  ar
     9    10     7   3
    10    20     8  ar
    11    20     9  ar
    12    21    10   1
    13    11    12  ar
    14    13    11  ar
    15    21    12  ar
    16    22    13  ar
    17    14    15  ar
    18    23    14  ar
    19    15    26  ar
    20    16    21  ar
    21    22    16  ar
    22    23    17  ar
    23    17    25  ar
    24    18    24  ar
    25    25    18  ar
    26    19    22   1
    27    24    19   1
    28    20    23   1
    29    25    26  ar
    30     2    27   1
    31     6    28   1
    32     7    29   1
    33    11    30   1
    34    12    31   1
    35    13    32   1
    36    14    33   1
    37    15    34   1
    38    16    35   1
    39    17    36   1
    40    19    37   1
@<TRIPOS>SUBSTRUCTURE
     1  E1B      2

