@<TRIPOS>MOLECULE
3pe2_ligand_023
    37    40
SMALL
GAST_HUCK
****
This file was generated by PARSER (from files_GN.cpp)

@<TRIPOS>ATOM
      1 N1         18.8500  -38.4234   20.3412 N.ar        1 E1B      -0.2566
      2 C2         19.0035  -37.1031   20.5707 C.ar        1 E1B       0.0922
      3 N3         20.2449  -36.6247   20.8223 N.ar        1 E1B      -0.2517
      4 C4         21.3588  -37.4038   20.8261 C.ar        1 E1B       0.1245
      5 C5         21.2291  -38.7934   20.5397 C.ar        1 E1B       0.0502
      6 C6         19.9087  -39.2672   20.3370 C.ar        1 E1B       0.0434
      7 CAA        21.4165  -30.0983   20.2207 C.1         1 E1B      -0.1140
      8 OAB        26.1600  -42.2466   18.5379 O.co2       1 E1B      -0.5601
      9 OAC        27.0937  -41.5330   20.5335 O.co2       1 E1B      -0.5601
     10 CAD        21.3718  -31.1403   20.8045 C.1         1 E1B      -0.0725
     11 CAE        20.1981  -33.7082   23.0847 C.ar        1 E1B      -0.0695
     12 CAG        20.2767  -32.4883   22.3907 C.ar        1 E1B      -0.0574
     13 CAH        21.1329  -34.7272   22.8243 C.ar        1 E1B      -0.0371
     14 CAI        23.5779  -41.7217   20.0167 C.ar        1 E1B      -0.0469
     15 CAJ        22.3885  -40.9981   20.1925 C.ar        1 E1B      -0.0482
     16 CAL        22.2162  -33.3184   21.1585 C.ar        1 E1B      -0.0223
     17 CAM        24.8549  -39.6947   20.4276 C.ar        1 E1B      -0.0324
     18 NAP        23.7185  -37.6552   20.9153 N.ar        1 E1B      -0.2773
     19 NAQ        22.9376  -35.5761   21.4442 N.pl3       1 E1B      -0.2490
     20 CAR        25.9925  -41.7654   19.7901 C.2         1 E1B       0.0639
     21 CAS        21.3050  -32.2763   21.4458 C.ar        1 E1B       0.0156
     22 CAT        22.0954  -34.5669   21.8037 C.ar        1 E1B       0.0678
     23 CAU        24.8200  -41.0655   20.0948 C.ar        1 E1B       0.0111
     24 CAV        22.6379  -36.8505   21.0789 C.ar        1 E1B       0.1682
     25 CAW        23.6571  -38.9701   20.5986 C.ar        1 E1B       0.0354
     26 CAY        22.3936  -39.6033   20.4440 C.ar        1 E1B       0.0121
     27 H1         18.1987  -36.4767   20.5586 H           1 E1B       0.1131
     28 H2         19.7104  -40.2467   20.1671 H           1 E1B       0.0992
     29 H3         21.4494  -29.2931   19.7710 H           1 E1B       0.1233
     30 H4         19.4672  -33.8516   23.7846 H           1 E1B       0.0590
     31 H5         19.5826  -31.7574   22.5891 H           1 E1B       0.0537
     32 H6         21.0730  -35.6052   23.3454 H           1 E1B       0.0543
     33 H7         23.5280  -42.7213   19.8053 H           1 E1B       0.0637
     34 H8         21.5200  -41.5185   20.1178 H           1 E1B       0.0642
     35 H9         22.9490  -33.1859   20.4544 H           1 E1B       0.0550
     36 H10        25.7498  -39.2187   20.5355 H           1 E1B       0.0650
     37 H11        23.8765  -35.3404   21.4178 H           1 E1B       0.2200
@<TRIPOS>BOND
     1     1     2  ar
     2     6     1  ar
     3     3     2  ar
     4     4     3  ar
     5     5     4  ar
     6    24     4  ar
     7     5     6  ar
     8    26     5  ar
     9    10     7   3
    10    20     8  ar
    11    20     9  ar
    12    21    10   1
    13    11    12  ar
    14    13    11  ar
    15    21    12  ar
    16    22    13  ar
    17    14    15  ar
    18    23    14  ar
    19    15    26  ar
    20    16    21  ar
    21    22    16  ar
    22    23    17  ar
    23    17    25  ar
    24    18    24  ar
    25    25    18  ar
    26    19    22   1
    27    24    19   1
    28    20    23   1
    29    25    26  ar
    30     2    27   1
    31     6    28   1
    32     7    29   1
    33    11    30   1
    34    12    31   1
    35    13    32   1
    36    14    33   1
    37    15    34   1
    38    16    35   1
    39    17    36   1
    40    19    37   1
@<TRIPOS>SUBSTRUCTURE
     1  E1B      2

