@<TRIPOS>MOLECULE
3pe2_ligand_056
    37    40
SMALL
GAST_HUCK
****
This file was generated by PARSER (from files_GN.cpp)

@<TRIPOS>ATOM
      1 N1         23.9541  -35.9935   21.5080 N.ar        1 E1B      -0.2566
      2 C2         23.7590  -34.7959   22.1038 C.ar        1 E1B       0.0922
      3 N3         22.5035  -34.3725   22.3639 N.ar        1 E1B      -0.2517
      4 C4         21.4153  -35.1108   22.0235 C.ar        1 E1B       0.1245
      5 C5         21.5782  -36.3628   21.3568 C.ar        1 E1B       0.0502
      6 C6         22.9149  -36.7737   21.1309 C.ar        1 E1B       0.0434
      7 CAA        14.9507  -34.4360   25.8203 C.1         1 E1B      -0.1140
      8 OAB        16.8545  -39.5239   18.2938 O.co2       1 E1B      -0.5601
      9 OAC        15.6720  -38.7976   20.1444 O.co2       1 E1B      -0.5601
     10 CAD        15.7325  -33.7863   25.1901 C.1         1 E1B      -0.0725
     11 CAE        17.2568  -30.9653   23.4875 C.ar        1 E1B      -0.0695
     12 CAG        16.3189  -31.7262   24.2069 C.ar        1 E1B      -0.0574
     13 CAH        18.4715  -31.5443   23.0749 C.ar        1 E1B      -0.0371
     14 CAI        19.2863  -38.8585   19.6969 C.ar        1 E1B      -0.0469
     15 CAJ        20.4700  -38.2758   20.1729 C.ar        1 E1B      -0.0482
     16 CAL        17.8016  -33.6568   24.0791 C.ar        1 E1B      -0.0223
     17 CAM        17.9724  -37.2037   20.8767 C.ar        1 E1B      -0.0324
     18 NAP        19.0642  -35.3930   21.9487 N.ar        1 E1B      -0.2773
     19 NAQ        19.9334  -33.4384   22.9405 N.pl3       1 E1B      -0.2490
     20 CAR        16.8501  -38.8946   19.4926 C.2         1 E1B       0.0639
     21 CAS        16.5895  -33.0783   24.5089 C.ar        1 E1B       0.0156
     22 CAT        18.7447  -32.9029   23.3464 C.ar        1 E1B       0.0678
     23 CAU        18.0249  -38.3278   20.0288 C.ar        1 E1B       0.0111
     24 CAV        20.1222  -34.6398   22.3336 C.ar        1 E1B       0.1682
     25 CAW        19.1558  -36.5644   21.2807 C.ar        1 E1B       0.0354
     26 CAY        20.4302  -37.0911   20.9447 C.ar        1 E1B       0.0121
     27 H1         24.5545  -34.2217   22.3655 H           1 E1B       0.1131
     28 H2         23.1416  -37.6581   20.6797 H           1 E1B       0.0992
     29 H3         14.3489  -34.9350   26.3063 H           1 E1B       0.1233
     30 H4         17.0582  -29.9861   23.2673 H           1 E1B       0.0590
     31 H5         15.4398  -31.2881   24.4956 H           1 E1B       0.0537
     32 H6         19.1470  -30.9733   22.5550 H           1 E1B       0.0543
     33 H7         19.3533  -39.6799   19.1027 H           1 E1B       0.0637
     34 H8         21.3503  -38.7029   19.8873 H           1 E1B       0.0642
     35 H9         18.0137  -34.6263   24.3195 H           1 E1B       0.0550
     36 H10        17.0735  -36.7920   21.1307 H           1 E1B       0.0650
     37 H11        20.7125  -32.8621   23.0048 H           1 E1B       0.2200
@<TRIPOS>BOND
     1     1     2  ar
     2     6     1  ar
     3     3     2  ar
     4     4     3  ar
     5     5     4  ar
     6    24     4  ar
     7     5     6  ar
     8    26     5  ar
     9    10     7   3
    10    20     8  ar
    11    20     9  ar
    12    21    10   1
    13    11    12  ar
    14    13    11  ar
    15    21    12  ar
    16    22    13  ar
    17    14    15  ar
    18    23    14  ar
    19    15    26  ar
    20    16    21  ar
    21    22    16  ar
    22    23    17  ar
    23    17    25  ar
    24    18    24  ar
    25    25    18  ar
    26    19    22   1
    27    24    19   1
    28    20    23   1
    29    25    26  ar
    30     2    27   1
    31     6    28   1
    32     7    29   1
    33    11    30   1
    34    12    31   1
    35    13    32   1
    36    14    33   1
    37    15    34   1
    38    16    35   1
    39    17    36   1
    40    19    37   1
@<TRIPOS>SUBSTRUCTURE
     1  E1B      2

