@<TRIPOS>MOLECULE
3pe2_ligand_049
    37    40
SMALL
GAST_HUCK
****
This file was generated by PARSER (from files_GN.cpp)

@<TRIPOS>ATOM
      1 N1         17.8326  -34.1243   19.7298 N.ar        1 E1B      -0.2566
      2 C2         18.5498  -33.1825   19.0759 C.ar        1 E1B       0.0922
      3 N3         19.1573  -32.1974   19.7748 N.ar        1 E1B      -0.2517
      4 C4         19.0748  -32.1133   21.1288 C.ar        1 E1B       0.1245
      5 C5         18.3350  -33.0896   21.8583 C.ar        1 E1B       0.0502
      6 C6         17.7166  -34.1077   21.0827 C.ar        1 E1B       0.0434
      7 CAA        22.7665  -27.1149   25.6139 C.1         1 E1B      -0.1140
      8 OAB        17.9065  -33.4267   28.3869 O.co2       1 E1B      -0.5601
      9 OAC        18.2654  -31.1693   28.0756 O.co2       1 E1B      -0.5601
     10 CAD        22.5019  -27.3114   24.4723 C.1         1 E1B      -0.0725
     11 CAE        22.2624  -26.9381   20.8657 C.ar        1 E1B      -0.0695
     12 CAG        22.5863  -26.6566   22.2045 C.ar        1 E1B      -0.0574
     13 CAH        21.5353  -28.1016   20.5457 C.ar        1 E1B      -0.0371
     14 CAI        17.5018  -33.6890   25.5169 C.ar        1 E1B      -0.0469
     15 CAJ        17.5415  -33.8831   24.1213 C.ar        1 E1B      -0.0482
     16 CAL        21.4850  -28.7201   22.8861 C.ar        1 E1B      -0.0223
     17 CAM        18.8674  -31.7004   25.2948 C.ar        1 E1B      -0.0324
     18 NAP        19.5824  -31.0143   23.1445 N.ar        1 E1B      -0.2773
     19 NAQ        20.4170  -30.1082   21.1173 N.pl3       1 E1B      -0.2490
     20 CAR        18.1137  -32.4003   27.5290 C.2         1 E1B       0.0639
     21 CAS        22.1986  -27.5503   23.2226 C.ar        1 E1B       0.0156
     22 CAT        21.1185  -29.0081   21.5462 C.ar        1 E1B       0.0678
     23 CAU        18.1642  -32.5961   26.1257 C.ar        1 E1B       0.0111
     24 CAV        19.7197  -31.0547   21.8045 C.ar        1 E1B       0.1682
     25 CAW        18.9040  -31.8970   23.9034 C.ar        1 E1B       0.0354
     26 CAY        18.2452  -32.9853   23.2790 C.ar        1 E1B       0.0121
     27 H1         18.6318  -33.2225   18.0600 H           1 E1B       0.1131
     28 H2         17.1558  -34.8496   21.5100 H           1 E1B       0.0992
     29 H3         22.9681  -26.9653   26.5066 H           1 E1B       0.1233
     30 H4         22.5531  -26.2939   20.1229 H           1 E1B       0.0590
     31 H5         23.1098  -25.8000   22.4169 H           1 E1B       0.0537
     32 H6         21.3138  -28.2769   19.5613 H           1 E1B       0.0543
     33 H7         16.9596  -34.3481   26.0889 H           1 E1B       0.0637
     34 H8         17.0408  -34.6882   23.7440 H           1 E1B       0.0642
     35 H9         21.2589  -29.3724   23.6290 H           1 E1B       0.0550
     36 H10        19.3655  -30.9055   25.6950 H           1 E1B       0.0650
     37 H11        20.3834  -30.2109   20.1550 H           1 E1B       0.2200
@<TRIPOS>BOND
     1     1     2  ar
     2     6     1  ar
     3     3     2  ar
     4     4     3  ar
     5     5     4  ar
     6    24     4  ar
     7     5     6  ar
     8    26     5  ar
     9    10     7   3
    10    20     8  ar
    11    20     9  ar
    12    21    10   1
    13    11    12  ar
    14    13    11  ar
    15    21    12  ar
    16    22    13  ar
    17    14    15  ar
    18    23    14  ar
    19    15    26  ar
    20    16    21  ar
    21    22    16  ar
    22    23    17  ar
    23    17    25  ar
    24    18    24  ar
    25    25    18  ar
    26    19    22   1
    27    24    19   1
    28    20    23   1
    29    25    26  ar
    30     2    27   1
    31     6    28   1
    32     7    29   1
    33    11    30   1
    34    12    31   1
    35    13    32   1
    36    14    33   1
    37    15    34   1
    38    16    35   1
    39    17    36   1
    40    19    37   1
@<TRIPOS>SUBSTRUCTURE
     1  E1B      2

