@<TRIPOS>MOLECULE
3pww_ligand_063
   100   104
SMALL
GAST_HUCK
****
This file was generated by PARSER (from files_GN.cpp)

@<TRIPOS>ATOM
      1 C          -2.5345    5.4473    9.4614 C.2         1 ROC       0.2293
      2 O          -3.2987    6.1409   10.1234 O.2         1 ROC      -0.3762
      3 N1         -0.7620    6.7659   10.3256 N.ar        1 ROC      -0.2737
      4 C2         -1.1674    5.7172    9.5511 C.ar        1 ROC       0.1219
      5 C3         -0.1560    4.9579    8.9170 C.ar        1 ROC      -0.0136
      6 C4          1.1988    5.2968    9.0910 C.ar        1 ROC      -0.0314
      7 C5          2.9061    6.7707   10.1259 C.ar        1 ROC      -0.0444
      8 C6          3.2045    7.8639   10.9617 C.ar        1 ROC      -0.0546
      9 C7          2.1673    8.5891   11.5793 C.ar        1 ROC      -0.0545
     10 C8          0.8257    8.2249   11.3597 C.ar        1 ROC      -0.0370
     11 C4A         1.5635    6.3943    9.8995 C.ar        1 ROC       0.0097
     12 C8A         0.5264    7.1362   10.5211 C.ar        1 ROC       0.0527
     13 N          -3.0156    4.4432    8.7327 N.am        1 ROC      -0.2600
     14 CA         -4.3806    4.0000    8.6562 C.3         1 ROC       0.1473
     15 C1         -4.4482    2.6448    9.1987 C.2         1 ROC       0.2045
     16 O1         -3.7721    1.7609    8.6838 O.2         1 ROC      -0.3943
     17 CB         -4.9632    4.1286    7.2148 C.3         1 ROC       0.0773
     18 CG         -4.3272    3.3070    6.1947 C.2         1 ROC       0.1780
     19 OD1        -3.3112    3.6891    5.6311 O.2         1 ROC      -0.3970
     20 ND2        -4.8249    2.1418    5.8469 N.am        1 ROC      -0.3007
     21 C9         -6.6180    1.0713   11.7622 C.3         1 ROC       0.1194
     22 O2         -6.4718    0.8184   13.1635 O.3         1 ROC      -0.3840
     23 CA1        -5.2254    1.1696   11.0340 C.3         1 ROC       0.0823
     24 N2         -5.1522    2.4043   10.2996 N.am        1 ROC      -0.2772
     25 CB1        -3.9959    1.0711   11.9941 C.3         1 ROC       0.0066
     26 CG1        -2.6643    1.3425   11.3690 C.ar        1 ROC      -0.0408
     27 CD1        -1.8973    2.4741   11.7390 C.ar        1 ROC      -0.0603
     28 CD2        -2.1233    0.4517   10.4066 C.ar        1 ROC      -0.0603
     29 CE1        -0.6505    2.7419   11.1381 C.ar        1 ROC      -0.0686
     30 CE2        -0.8713    0.7059    9.8160 C.ar        1 ROC      -0.0686
     31 CZ         -0.1361    1.8535   10.1778 C.ar        1 ROC      -0.0687
     32 N11        -7.7233   -0.0106    9.6984 N.4         1 ROC       0.2562
     33 CM         -7.5649   -0.0317   11.1991 C.3         1 ROC      -0.0008
     34 C21        -8.8041    0.8982    9.1527 C.3         1 ROC       0.0688
     35 CC        -10.2017    0.6363    9.5173 C.2         1 ROC       0.2251
     36 O3        -10.5412   -0.4610    9.9338 O.2         1 ROC      -0.3909
     37 C31        -8.6141    1.0262    7.6055 C.3         1 ROC       0.0113
     38 C3A        -8.4916   -0.3301    6.8450 C.3         1 ROC      -0.0261
     39 C41        -9.8537   -1.0568    6.6106 C.3         1 ROC      -0.0494
     40 C51        -9.6718   -2.4078    5.8702 C.3         1 ROC      -0.0528
     41 C61        -8.6782   -3.3353    6.6142 C.3         1 ROC      -0.0526
     42 C71        -7.3129   -2.6375    6.8394 C.3         1 ROC      -0.0451
     43 C7A        -7.4385   -1.2521    7.5460 C.3         1 ROC       0.0024
     44 C81        -7.7044   -1.3719    9.0752 C.3         1 ROC      -0.0266
     45 N3        -11.0995    1.6086    9.3776 N.am        1 ROC      -0.2771
     46 CD        -12.5184    1.6021    9.6618 C.3         1 ROC       0.0448
     47 C11       -13.0770    2.9639    9.1426 C.3         1 ROC      -0.0396
     48 C22       -12.7845    1.5110   11.1958 C.3         1 ROC      -0.0396
     49 C32       -13.2375    0.4421    8.9018 C.3         1 ROC      -0.0396
     50 H1         -0.3841    4.1800    8.2971 H           1 ROC       0.0729
     51 H2          1.9178    4.7332    8.6334 H           1 ROC       0.0774
     52 H3          3.6719    6.2553    9.6775 H           1 ROC       0.0657
     53 H4          4.1793    8.1280   11.1287 H           1 ROC       0.0652
     54 H5          2.3905    9.3756   12.1915 H           1 ROC       0.0657
     55 H6          0.0774    8.7579   11.8086 H           1 ROC       0.0653
     56 H7         -2.3760    3.9158    8.2345 H           1 ROC       0.1882
     57 H8         -5.0162    4.6462    9.2660 H           1 ROC       0.0826
     58 H9         -4.8952    5.1716    6.8941 H           1 ROC       0.0551
     59 H10        -6.0312    3.8878    7.2591 H           1 ROC       0.0551
     60 H11        -4.3895    1.6110    5.1684 H           1 ROC       0.1814
     61 H12        -5.6231    1.8017    6.2792 H           1 ROC       0.1814
     62 H13        -7.1406    2.0277   11.6900 H           1 ROC       0.0672
     63 H14        -7.3000    1.1445   13.5803 H           1 ROC       0.2101
     64 H15        -5.1327    0.3188   10.3489 H           1 ROC       0.0606
     65 H16        -5.6588    3.1458   10.6619 H           1 ROC       0.1857
     66 H17        -3.9506    0.0617   12.4099 H           1 ROC       0.0449
     67 H18        -4.1533    1.7579   12.8313 H           1 ROC       0.0449
     68 H19        -2.2573    3.1331   12.4328 H           1 ROC       0.0557
     69 H20        -2.6411   -0.3798   10.1236 H           1 ROC       0.0557
     70 H21        -0.1175    3.5780   11.3939 H           1 ROC       0.0599
     71 H22        -0.4969    0.0665    9.1140 H           1 ROC       0.0599
     72 H23         0.7682    2.0482    9.7338 H           1 ROC       0.0559
     73 H24        -6.8576    0.4138    9.3629 H           1 ROC       0.2057
     74 H25        -8.5419    0.0604   11.6837 H           1 ROC       0.0841
     75 H26        -7.1472   -0.9874   11.5274 H           1 ROC       0.0841
     76 H27        -8.5896    1.8956    9.5551 H           1 ROC       0.1100
     77 H28        -7.6844    1.5803    7.4361 H           1 ROC       0.0348
     78 H29        -9.4081    1.6254    7.1558 H           1 ROC       0.0348
     79 H30        -8.0981   -0.0929    5.8453 H           1 ROC       0.0309
     80 H31       -10.5104   -0.4144    6.0172 H           1 ROC       0.0268
     81 H32       -10.3511   -1.2533    7.5609 H           1 ROC       0.0268
     82 H33        -9.3074   -2.2220    4.8559 H           1 ROC       0.0265
     83 H34       -10.6423   -2.9080    5.7905 H           1 ROC       0.0265
     84 H35        -8.5271   -4.2439    6.0239 H           1 ROC       0.0265
     85 H36        -9.1046   -3.6329    7.5746 H           1 ROC       0.0265
     86 H37        -6.8332   -2.4954    5.8656 H           1 ROC       0.0270
     87 H38        -6.6664   -3.2948    7.4232 H           1 ROC       0.0270
     88 H39        -6.4592   -0.7677    7.4412 H           1 ROC       0.0355
     89 H40        -8.6339   -1.9099    9.2709 H           1 ROC       0.0818
     90 H41        -6.8903   -1.9643    9.4929 H           1 ROC       0.0818
     91 H42       -10.7489    2.4491    9.0419 H           1 ROC       0.1859
     92 H43       -14.1510    3.0462    9.3300 H           1 ROC       0.0254
     93 H44       -12.9110    3.0681    8.0667 H           1 ROC       0.0254
     94 H45       -12.5799    3.7969    9.6434 H           1 ROC       0.0254
     95 H46       -13.8492    1.6154   11.4108 H           1 ROC       0.0254
     96 H47       -12.2490    2.3042   11.7180 H           1 ROC       0.0254
     97 H48       -12.4548    0.5537   11.5989 H           1 ROC       0.0254
     98 H49       -14.3220    0.5037    9.0363 H           1 ROC       0.0254
     99 H50       -12.9115   -0.5319    9.2702 H           1 ROC       0.0254
    100 H51       -13.0222    0.4898    7.8302 H           1 ROC       0.0254
@<TRIPOS>BOND
     1     1     2   2
     2     1     4   1
     3    13     1  am
     4     4     3  ar
     5     3    12  ar
     6     4     5  ar
     7     5     6  ar
     8     6    11  ar
     9     7     8  ar
    10    11     7  ar
    11     9     8  ar
    12    10     9  ar
    13    12    10  ar
    14    12    11  ar
    15    14    13   1
    16    15    14   1
    17    14    17   1
    18    15    16   2
    19    24    15  am
    20    17    18   1
    21    18    19   2
    22    18    20  am
    23    21    22   1
    24    23    21   1
    25    21    33   1
    26    23    24   1
    27    23    25   1
    28    25    26   1
    29    26    27  ar
    30    26    28  ar
    31    27    29  ar
    32    28    30  ar
    33    29    31  ar
    34    30    31  ar
    35    33    32   1
    36    32    34   1
    37    32    44   1
    38    34    35   1
    39    34    37   1
    40    35    36   2
    41    35    45  am
    42    37    38   1
    43    38    39   1
    44    38    43   1
    45    39    40   1
    46    40    41   1
    47    41    42   1
    48    42    43   1
    49    43    44   1
    50    45    46   1
    51    46    47   1
    52    46    48   1
    53    46    49   1
    54     5    50   1
    55     6    51   1
    56     7    52   1
    57     8    53   1
    58     9    54   1
    59    10    55   1
    60    13    56   1
    61    14    57   1
    62    17    58   1
    63    17    59   1
    64    20    60   1
    65    20    61   1
    66    21    62   1
    67    22    63   1
    68    23    64   1
    69    24    65   1
    70    25    66   1
    71    25    67   1
    72    27    68   1
    73    28    69   1
    74    29    70   1
    75    30    71   1
    76    31    72   1
    77    32    73   1
    78    33    74   1
    79    33    75   1
    80    34    76   1
    81    37    77   1
    82    37    78   1
    83    38    79   1
    84    39    80   1
    85    39    81   1
    86    40    82   1
    87    40    83   1
    88    41    84   1
    89    41    85   1
    90    42    86   1
    91    42    87   1
    92    43    88   1
    93    44    89   1
    94    44    90   1
    95    45    91   1
    96    47    92   1
    97    47    93   1
    98    47    94   1
    99    48    95   1
   100    48    96   1
   101    48    97   1
   102    49    98   1
   103    49    99   1
   104    49   100   1
@<TRIPOS>SUBSTRUCTURE
     1  ROC      1

