@<TRIPOS>MOLECULE
3pww_ligand_072
   100   104
SMALL
GAST_HUCK
****
This file was generated by PARSER (from files_GN.cpp)

@<TRIPOS>ATOM
      1 C           0.0039    7.6994   10.0760 C.2         1 ROC       0.2293
      2 O          -0.0932    8.1532    8.9387 O.2         1 ROC      -0.3762
      3 N1          0.8648    9.8013   10.7648 N.ar        1 ROC      -0.2737
      4 C2          0.4190    8.5574   11.0965 C.ar        1 ROC       0.1219
      5 C3          0.3592    8.2351   12.4787 C.ar        1 ROC      -0.0136
      6 C4          0.7327    9.1894   13.4419 C.ar        1 ROC      -0.0314
      7 C5          1.5478   11.4655   13.9749 C.ar        1 ROC      -0.0444
      8 C6          1.9862   12.7259   13.5239 C.ar        1 ROC      -0.0546
      9 C7          2.0651   12.9953   12.1445 C.ar        1 ROC      -0.0545
     10 C8          1.6973   12.0097   11.2105 C.ar        1 ROC      -0.0370
     11 C4A         1.1798   10.4683   13.0456 C.ar        1 ROC       0.0097
     12 C8A         1.2490   10.7514   11.6564 C.ar        1 ROC       0.0527
     13 N          -0.3208    6.4266   10.2886 N.am        1 ROC      -0.2600
     14 CA         -0.9262    5.5224    9.3395 C.3         1 ROC       0.1473
     15 C1         -2.3658    5.7480    9.2208 C.2         1 ROC       0.2045
     16 O1         -2.9900    6.1485   10.2003 O.2         1 ROC      -0.3943
     17 CB         -0.6334    4.0443    9.7552 C.3         1 ROC       0.0773
     18 CG          0.7040    3.5367    9.4866 C.2         1 ROC       0.1780
     19 OD1         0.9391    2.3603    9.7065 O.2         1 ROC      -0.3970
     20 ND2         1.6764    4.2522    8.9550 N.am        1 ROC      -0.3007
     21 C9         -4.9949    3.9450    7.7232 C.3         1 ROC       0.1194
     22 O2         -6.4170    4.0441    7.6006 O.3         1 ROC      -0.3840
     23 CA1        -4.4215    5.4002    7.8833 C.3         1 ROC       0.0823
     24 N2         -3.0006    5.3667    8.1147 N.am        1 ROC      -0.2772
     25 CB1        -4.7336    6.2875    6.6306 C.3         1 ROC       0.0066
     26 CG1        -4.0250    7.5956    6.5004 C.ar        1 ROC      -0.0408
     27 CD1        -3.4113    7.9580    5.2741 C.ar        1 ROC      -0.0603
     28 CD2        -4.0074    8.5310    7.5612 C.ar        1 ROC      -0.0603
     29 CE1        -2.7893    9.2096    5.1182 C.ar        1 ROC      -0.0686
     30 CE2        -3.3592    9.7726    7.4167 C.ar        1 ROC      -0.0686
     31 CZ         -2.7510   10.1117    6.1938 C.ar        1 ROC      -0.0687
     32 N11        -5.6615    2.3573    9.7185 N.4         1 ROC       0.2562
     33 CM         -4.5742    2.8977    8.8196 C.3         1 ROC      -0.0008
     34 C21        -5.2071    2.0581   11.1303 C.3         1 ROC       0.0688
     35 CC         -4.0879    1.1294   11.3336 C.2         1 ROC       0.2251
     36 O3         -3.4613    1.2128   12.3839 O.2         1 ROC      -0.3909
     37 C31        -6.4475    1.7012   12.0162 C.3         1 ROC       0.0113
     38 C3A        -7.3618    0.5808   11.4320 C.3         1 ROC      -0.0261
     39 C41        -6.7898   -0.8551   11.6440 C.3         1 ROC      -0.0494
     40 C51        -7.6742   -1.9553   11.0144 C.3         1 ROC      -0.0528
     41 C61        -7.9414   -1.6788    9.5143 C.3         1 ROC      -0.0526
     42 C71        -8.5685   -0.2727    9.3074 C.3         1 ROC      -0.0451
     43 C7A        -7.7391    0.8906    9.9427 C.3         1 ROC       0.0024
     44 C81        -6.4892    1.2703    9.0906 C.3         1 ROC      -0.0266
     45 N3         -3.7625    0.2042   10.4351 N.am        1 ROC      -0.2771
     46 CD         -2.7791   -0.8546   10.4814 C.3         1 ROC       0.0448
     47 C11        -2.9041   -1.5625    9.0951 C.3         1 ROC      -0.0396
     48 C22        -3.0622   -1.9106   11.5989 C.3         1 ROC      -0.0396
     49 C32        -1.3496   -0.2574   10.6597 C.3         1 ROC      -0.0396
     50 H1          0.0237    7.3240   12.7967 H           1 ROC       0.0729
     51 H2          0.6678    8.9494   14.4353 H           1 ROC       0.0774
     52 H3          1.4959   11.2852   14.9809 H           1 ROC       0.0657
     53 H4          2.2475   13.4470   14.1995 H           1 ROC       0.0652
     54 H5          2.3865   13.9108   11.8214 H           1 ROC       0.0657
     55 H6          1.7535   12.2140   10.2096 H           1 ROC       0.0653
     56 H7         -0.1993    6.0800   11.1877 H           1 ROC       0.1882
     57 H8         -0.4778    5.6860    8.3560 H           1 ROC       0.0826
     58 H9         -1.3271    3.3851    9.2235 H           1 ROC       0.0551
     59 H10        -0.8344    3.9282   10.8268 H           1 ROC       0.0551
     60 H11         2.5188    3.8309    8.7239 H           1 ROC       0.1814
     61 H12         1.5489    5.1879    8.7372 H           1 ROC       0.1814
     62 H13        -4.6431    3.5614    6.7588 H           1 ROC       0.0672
     63 H14        -6.7298    4.4197    8.4504 H           1 ROC       0.2101
     64 H15        -4.9405    5.8479    8.7378 H           1 ROC       0.0606
     65 H16        -2.4567    4.9894    7.4029 H           1 ROC       0.1857
     66 H17        -5.8049    6.5059    6.6301 H           1 ROC       0.0449
     67 H18        -4.5341    5.6917    5.7345 H           1 ROC       0.0449
     68 H19        -3.4361    7.3226    4.4727 H           1 ROC       0.0557
     69 H20        -4.4601    8.3115    8.4501 H           1 ROC       0.0557
     70 H21        -2.3786    9.4671    4.2162 H           1 ROC       0.0599
     71 H22        -3.3451   10.4338    8.1955 H           1 ROC       0.0599
     72 H23        -2.2995   11.0205    6.0812 H           1 ROC       0.0559
     73 H24        -6.3035    3.1383    9.8384 H           1 ROC       0.2057
     74 H25        -3.8016    3.3529    9.4377 H           1 ROC       0.0841
     75 H26        -4.0854    2.0591    8.3142 H           1 ROC       0.0841
     76 H27        -4.8605    3.0213   11.5214 H           1 ROC       0.1100
     77 H28        -7.0636    2.6044   12.1078 H           1 ROC       0.0348
     78 H29        -6.1376    1.4385   13.0317 H           1 ROC       0.0348
     79 H30        -8.2967    0.6060   12.0049 H           1 ROC       0.0309
     80 H31        -6.6840   -1.0554   12.7139 H           1 ROC       0.0268
     81 H32        -5.8071   -0.9354   11.1920 H           1 ROC       0.0268
     82 H33        -8.6245   -2.0129   11.5499 H           1 ROC       0.0265
     83 H34        -7.1696   -2.9183   11.1212 H           1 ROC       0.0265
     84 H35        -8.6253   -2.4400    9.1285 H           1 ROC       0.0265
     85 H36        -7.0075   -1.7602    8.9507 H           1 ROC       0.0265
     86 H37        -9.5640   -0.2740    9.7595 H           1 ROC       0.0270
     87 H38        -8.6989   -0.0948    8.2380 H           1 ROC       0.0270
     88 H39        -8.3837    1.7783    9.9476 H           1 ROC       0.0355
     89 H40        -5.8857    0.3758    8.9204 H           1 ROC       0.0818
     90 H41        -6.8417    1.6037    8.1088 H           1 ROC       0.0818
     91 H42        -4.3083    0.2180    9.6314 H           1 ROC       0.1859
     92 H43        -2.2533   -2.4313    9.0396 H           1 ROC       0.0254
     93 H44        -2.6403   -0.8793    8.2842 H           1 ROC       0.0254
     94 H45        -3.9299   -1.9047    8.9297 H           1 ROC       0.0254
     95 H46        -2.2998   -2.6933   11.5785 H           1 ROC       0.0254
     96 H47        -4.0396   -2.3812   11.4561 H           1 ROC       0.0254
     97 H48        -3.0426   -1.4502   12.5901 H           1 ROC       0.0254
     98 H49        -0.5946   -1.0430   10.5837 H           1 ROC       0.0254
     99 H50        -1.2474    0.2205   11.6407 H           1 ROC       0.0254
    100 H51        -1.1528    0.4916    9.8856 H           1 ROC       0.0254
@<TRIPOS>BOND
     1     1     2   2
     2     1     4   1
     3    13     1  am
     4     4     3  ar
     5     3    12  ar
     6     4     5  ar
     7     5     6  ar
     8     6    11  ar
     9     7     8  ar
    10    11     7  ar
    11     9     8  ar
    12    10     9  ar
    13    12    10  ar
    14    12    11  ar
    15    14    13   1
    16    15    14   1
    17    14    17   1
    18    15    16   2
    19    24    15  am
    20    17    18   1
    21    18    19   2
    22    18    20  am
    23    21    22   1
    24    23    21   1
    25    21    33   1
    26    23    24   1
    27    23    25   1
    28    25    26   1
    29    26    27  ar
    30    26    28  ar
    31    27    29  ar
    32    28    30  ar
    33    29    31  ar
    34    30    31  ar
    35    33    32   1
    36    32    34   1
    37    32    44   1
    38    34    35   1
    39    34    37   1
    40    35    36   2
    41    35    45  am
    42    37    38   1
    43    38    39   1
    44    38    43   1
    45    39    40   1
    46    40    41   1
    47    41    42   1
    48    42    43   1
    49    43    44   1
    50    45    46   1
    51    46    47   1
    52    46    48   1
    53    46    49   1
    54     5    50   1
    55     6    51   1
    56     7    52   1
    57     8    53   1
    58     9    54   1
    59    10    55   1
    60    13    56   1
    61    14    57   1
    62    17    58   1
    63    17    59   1
    64    20    60   1
    65    20    61   1
    66    21    62   1
    67    22    63   1
    68    23    64   1
    69    24    65   1
    70    25    66   1
    71    25    67   1
    72    27    68   1
    73    28    69   1
    74    29    70   1
    75    30    71   1
    76    31    72   1
    77    32    73   1
    78    33    74   1
    79    33    75   1
    80    34    76   1
    81    37    77   1
    82    37    78   1
    83    38    79   1
    84    39    80   1
    85    39    81   1
    86    40    82   1
    87    40    83   1
    88    41    84   1
    89    41    85   1
    90    42    86   1
    91    42    87   1
    92    43    88   1
    93    44    89   1
    94    44    90   1
    95    45    91   1
    96    47    92   1
    97    47    93   1
    98    47    94   1
    99    48    95   1
   100    48    96   1
   101    48    97   1
   102    49    98   1
   103    49    99   1
   104    49   100   1
@<TRIPOS>SUBSTRUCTURE
     1  ROC      1

