@<TRIPOS>MOLECULE
3pww_ligand_004
   100   104
SMALL
GAST_HUCK
****
This file was generated by PARSER (from files_GN.cpp)

@<TRIPOS>ATOM
      1 C          -2.4906    5.1113    9.7353 C.2         1 ROC       0.2293
      2 O          -3.2631    5.9217   10.2381 O.2         1 ROC      -0.3762
      3 N1         -0.7986    6.0779   11.0793 N.ar        1 ROC      -0.2737
      4 C2         -1.1493    5.1807   10.1128 C.ar        1 ROC       0.1219
      5 C3         -0.1219    4.3467    9.6076 C.ar        1 ROC      -0.0136
      6 C4          1.1827    4.4405   10.1269 C.ar        1 ROC      -0.0314
      7 C5          2.7523    5.4550   11.7545 C.ar        1 ROC      -0.0444
      8 C6          2.9851    6.3897   12.7830 C.ar        1 ROC      -0.0546
      9 C7          1.9541    7.2447   13.2110 C.ar        1 ROC      -0.0545
     10 C8          0.6808    7.1605   12.6228 C.ar        1 ROC      -0.0370
     11 C4A         1.4785    5.3610   11.1559 C.ar        1 ROC       0.0097
     12 C8A         0.4392    6.2120   11.6082 C.ar        1 ROC       0.0527
     13 N          -2.9640    4.1767    8.9089 N.am        1 ROC      -0.2600
     14 CA         -4.3529    3.9096    8.6132 C.3         1 ROC       0.1473
     15 C1         -4.6623    2.5122    8.9242 C.2         1 ROC       0.2045
     16 O1         -4.0481    1.6105    8.3689 O.2         1 ROC      -0.3943
     17 CB         -4.7437    4.3435    7.1659 C.3         1 ROC       0.0773
     18 CG         -4.2242    3.5279    6.0835 C.2         1 ROC       0.1780
     19 OD1        -3.1457    3.7826    5.5692 O.2         1 ROC      -0.3970
     20 ND2        -4.9200    2.5116    5.6208 N.am        1 ROC      -0.3007
     21 C9         -7.6320    1.0518   10.2592 C.3         1 ROC       0.1194
     22 O2         -8.0425    2.1960   11.0164 O.3         1 ROC      -0.3840
     23 CA1        -6.0724    0.9536   10.2674 C.3         1 ROC       0.0823
     24 N2         -5.5679    2.2343    9.8492 N.am        1 ROC      -0.2772
     25 CB1        -5.4492    0.5929   11.6528 C.3         1 ROC       0.0066
     26 CG1        -4.0357    0.1556   11.5214 C.ar        1 ROC      -0.0408
     27 CD1        -3.7300   -1.2109   11.3081 C.ar        1 ROC      -0.0603
     28 CD2        -2.9785    1.0948   11.5604 C.ar        1 ROC      -0.0603
     29 CE1        -2.3983   -1.6304   11.1469 C.ar        1 ROC      -0.0686
     30 CE2        -1.6456    0.6767   11.3872 C.ar        1 ROC      -0.0686
     31 CZ         -1.3567   -0.6855   11.1801 C.ar        1 ROC      -0.0687
     32 N11        -9.8445   -0.3925   10.4301 N.4         1 ROC       0.2562
     33 CM         -8.3966   -0.1912   10.8092 C.3         1 ROC      -0.0008
     34 C21       -10.1446   -1.5067    9.4612 C.3         1 ROC       0.0688
     35 CC         -9.4385   -1.4226    8.1774 C.2         1 ROC       0.2251
     36 O3         -9.9685   -0.8290    7.2516 O.2         1 ROC      -0.3909
     37 C31       -11.6967   -1.7582    9.3582 C.3         1 ROC       0.0113
     38 C3A       -12.6374   -0.5016    9.3407 C.3         1 ROC      -0.0261
     39 C41       -12.9050    0.1099    7.9231 C.3         1 ROC      -0.0494
     40 C51       -13.8060    1.3754    7.9579 C.3         1 ROC      -0.0528
     41 C61       -13.2062    2.4473    8.9006 C.3         1 ROC      -0.0526
     42 C71       -13.0156    1.8800   10.3310 C.3         1 ROC      -0.0451
     43 C7A       -12.1564    0.5742   10.3690 C.3         1 ROC       0.0024
     44 C81       -10.6413    0.8513   10.1982 C.3         1 ROC      -0.0266
     45 N3         -8.2486   -1.9993    8.0056 N.am        1 ROC      -0.2771
     46 CD         -7.4710   -2.1154    6.7880 C.3         1 ROC       0.0448
     47 C11        -6.0917   -2.7019    7.2130 C.3         1 ROC      -0.0396
     48 C22        -7.2128   -0.7494    6.0688 C.3         1 ROC      -0.0396
     49 C32        -8.1872   -3.1177    5.8303 C.3         1 ROC      -0.0396
     50 H1         -0.3107    3.6618    8.8745 H           1 ROC       0.0729
     51 H2          1.9117    3.8236    9.7593 H           1 ROC       0.0774
     52 H3          3.5112    4.8378   11.4571 H           1 ROC       0.0657
     53 H4          3.9061    6.4494   13.2217 H           1 ROC       0.0652
     54 H5          2.1292    7.9241   13.9558 H           1 ROC       0.0657
     55 H6         -0.0679    7.7792   12.9428 H           1 ROC       0.0653
     56 H7         -2.3183    3.5794    8.4956 H           1 ROC       0.1882
     57 H8         -4.9813    4.5398    9.2540 H           1 ROC       0.0826
     58 H9         -4.4217    5.3790    7.0190 H           1 ROC       0.0551
     59 H10        -5.8360    4.3584    7.0929 H           1 ROC       0.0551
     60 H11        -4.5837    1.9809    4.8841 H           1 ROC       0.1814
     61 H12        -5.7777    2.2841    6.0198 H           1 ROC       0.1814
     62 H13        -7.9396    1.2095    9.2209 H           1 ROC       0.0672
     63 H14        -7.7881    2.9767   10.4863 H           1 ROC       0.2101
     64 H15        -5.7964    0.1738    9.5488 H           1 ROC       0.0606
     65 H16        -5.9690    2.9997   10.2894 H           1 ROC       0.1857
     66 H17        -6.0100   -0.2122   12.1284 H           1 ROC       0.0449
     67 H18        -5.5187    1.4482   12.3283 H           1 ROC       0.0449
     68 H19        -4.4774   -1.9094   11.2698 H           1 ROC       0.0557
     69 H20        -3.1733    2.0890   11.7047 H           1 ROC       0.0557
     70 H21        -2.1887   -2.6213   11.0090 H           1 ROC       0.0599
     71 H22        -0.8897    1.3616   11.4181 H           1 ROC       0.0599
     72 H23        -0.3884   -0.9914   11.0669 H           1 ROC       0.0559
     73 H24       -10.2393   -0.7607   11.2965 H           1 ROC       0.2057
     74 H25        -8.3845   -0.1209   11.8986 H           1 ROC       0.0841
     75 H26        -7.8218   -1.0868   10.5649 H           1 ROC       0.0841
     76 H27        -9.7616   -2.4135    9.9548 H           1 ROC       0.1100
     77 H28       -11.9798   -2.3421   10.2428 H           1 ROC       0.0348
     78 H29       -11.9151   -2.3966    8.5016 H           1 ROC       0.0348
     79 H30       -13.6180   -0.8467    9.6955 H           1 ROC       0.0309
     80 H31       -13.3828   -0.6401    7.2902 H           1 ROC       0.0268
     81 H32       -11.9762    0.4072    7.4491 H           1 ROC       0.0268
     82 H33       -14.8133    1.1113    8.2846 H           1 ROC       0.0265
     83 H34       -13.8745    1.7891    6.9486 H           1 ROC       0.0265
     84 H35       -13.8780    3.3112    8.9405 H           1 ROC       0.0265
     85 H36       -12.2475    2.7927    8.5089 H           1 ROC       0.0265
     86 H37       -13.9984    1.6717   10.7569 H           1 ROC       0.0270
     87 H38       -12.5509    2.6492   10.9546 H           1 ROC       0.0270
     88 H39       -12.2834    0.1508   11.3707 H           1 ROC       0.0355
     89 H40       -10.4312    1.2708    9.2119 H           1 ROC       0.0818
     90 H41       -10.3759    1.6005   10.9415 H           1 ROC       0.0818
     91 H42        -7.8724   -2.4520    8.7809 H           1 ROC       0.1859
     92 H43        -5.4419   -2.8450    6.3450 H           1 ROC       0.0254
     93 H44        -6.2170   -3.6667    7.7092 H           1 ROC       0.0254
     94 H45        -5.5886   -2.0265    7.9107 H           1 ROC       0.0254
     95 H46        -6.4865   -0.8667    5.2593 H           1 ROC       0.0254
     96 H47        -6.8156   -0.0173    6.7732 H           1 ROC       0.0254
     97 H48        -8.1227   -0.3390    5.6303 H           1 ROC       0.0254
     98 H49        -7.5938   -3.2959    4.9328 H           1 ROC       0.0254
     99 H50        -9.1607   -2.7361    5.5192 H           1 ROC       0.0254
    100 H51        -8.3465   -4.0746    6.3331 H           1 ROC       0.0254
@<TRIPOS>BOND
     1     1     2   2
     2     1     4   1
     3    13     1  am
     4     4     3  ar
     5     3    12  ar
     6     4     5  ar
     7     5     6  ar
     8     6    11  ar
     9     7     8  ar
    10    11     7  ar
    11     9     8  ar
    12    10     9  ar
    13    12    10  ar
    14    12    11  ar
    15    14    13   1
    16    15    14   1
    17    14    17   1
    18    15    16   2
    19    24    15  am
    20    17    18   1
    21    18    19   2
    22    18    20  am
    23    21    22   1
    24    23    21   1
    25    21    33   1
    26    23    24   1
    27    23    25   1
    28    25    26   1
    29    26    27  ar
    30    26    28  ar
    31    27    29  ar
    32    28    30  ar
    33    29    31  ar
    34    30    31  ar
    35    33    32   1
    36    32    34   1
    37    32    44   1
    38    34    35   1
    39    34    37   1
    40    35    36   2
    41    35    45  am
    42    37    38   1
    43    38    39   1
    44    38    43   1
    45    39    40   1
    46    40    41   1
    47    41    42   1
    48    42    43   1
    49    43    44   1
    50    45    46   1
    51    46    47   1
    52    46    48   1
    53    46    49   1
    54     5    50   1
    55     6    51   1
    56     7    52   1
    57     8    53   1
    58     9    54   1
    59    10    55   1
    60    13    56   1
    61    14    57   1
    62    17    58   1
    63    17    59   1
    64    20    60   1
    65    20    61   1
    66    21    62   1
    67    22    63   1
    68    23    64   1
    69    24    65   1
    70    25    66   1
    71    25    67   1
    72    27    68   1
    73    28    69   1
    74    29    70   1
    75    30    71   1
    76    31    72   1
    77    32    73   1
    78    33    74   1
    79    33    75   1
    80    34    76   1
    81    37    77   1
    82    37    78   1
    83    38    79   1
    84    39    80   1
    85    39    81   1
    86    40    82   1
    87    40    83   1
    88    41    84   1
    89    41    85   1
    90    42    86   1
    91    42    87   1
    92    43    88   1
    93    44    89   1
    94    44    90   1
    95    45    91   1
    96    47    92   1
    97    47    93   1
    98    47    94   1
    99    48    95   1
   100    48    96   1
   101    48    97   1
   102    49    98   1
   103    49    99   1
   104    49   100   1
@<TRIPOS>SUBSTRUCTURE
     1  ROC      1

