@<TRIPOS>MOLECULE
3pww_ligand_016
   100   104
SMALL
GAST_HUCK
****
This file was generated by PARSER (from files_GN.cpp)

@<TRIPOS>ATOM
      1 C          -4.3224    2.7527    8.9498 C.2         1 ROC       0.2293
      2 O          -3.7146    2.1756    8.0571 O.2         1 ROC      -0.3762
      3 N1         -5.0980    0.6414    9.6955 N.ar        1 ROC      -0.2737
      4 C2         -5.0328    1.9904    9.8783 C.ar        1 ROC       0.1219
      5 C3         -5.6253    2.5198   11.0505 C.ar        1 ROC      -0.0136
      6 C4         -6.2662    1.6659   11.9671 C.ar        1 ROC      -0.0314
      7 C5         -6.8864   -0.6248   12.6502 C.ar        1 ROC      -0.0444
      8 C6         -6.8421   -2.0104   12.4032 C.ar        1 ROC      -0.0546
      9 C7         -6.2203   -2.5005   11.2398 C.ar        1 ROC      -0.0545
     10 C8         -5.6627   -1.6089   10.3064 C.ar        1 ROC      -0.0370
     11 C4A        -6.3014    0.2754   11.7361 C.ar        1 ROC       0.0097
     12 C8A        -5.6951   -0.2233   10.5546 C.ar        1 ROC       0.0527
     13 N          -4.2331    4.0762    9.0381 N.am        1 ROC      -0.2600
     14 CA         -3.3616    4.9346    8.2767 C.3         1 ROC       0.1473
     15 C1         -1.9705    4.7016    8.6732 C.2         1 ROC       0.2045
     16 O1         -1.1039    4.5932    7.8114 O.2         1 ROC      -0.3943
     17 CB         -3.7598    6.4324    8.4824 C.3         1 ROC       0.0773
     18 CG         -5.1080    6.8056    8.0807 C.2         1 ROC       0.1780
     19 OD1        -5.9945    5.9819    7.9098 O.2         1 ROC      -0.3970
     20 ND2        -5.4240    8.0677    7.8899 N.am        1 ROC      -0.3007
     21 C9          0.7971    5.1654   10.1163 C.3         1 ROC       0.1194
     22 O2          1.6987    5.1440   11.2252 O.3         1 ROC      -0.3840
     23 CA1        -0.4283    4.3173   10.6010 C.3         1 ROC       0.0823
     24 N2         -1.6799    4.6106    9.9638 N.am        1 ROC      -0.2772
     25 CB1        -0.1033    2.7833   10.5880 C.3         1 ROC       0.0066
     26 CG1        -1.1275    1.7844   11.0160 C.ar        1 ROC      -0.0408
     27 CD1        -0.8803    0.4189   10.7336 C.ar        1 ROC      -0.0603
     28 CD2        -2.2770    2.1145   11.7687 C.ar        1 ROC      -0.0603
     29 CE1        -1.7772   -0.5869   11.1537 C.ar        1 ROC      -0.0686
     30 CE2        -3.1644    1.1073   12.2011 C.ar        1 ROC      -0.0686
     31 CZ         -2.9225   -0.2359   11.8880 C.ar        1 ROC      -0.0687
     32 N11         1.5987    7.5569    9.3548 N.4         1 ROC       0.2562
     33 CM          0.4586    6.6316    9.7000 C.3         1 ROC      -0.0008
     34 C21         2.7265    7.6710   10.3604 C.3         1 ROC       0.0688
     35 CC          2.3451    7.9719   11.7481 C.2         1 ROC       0.2251
     36 O3          1.2301    8.4075   11.9982 O.2         1 ROC      -0.3909
     37 C31         3.8869    8.5595    9.8245 C.3         1 ROC       0.0113
     38 C3A         3.4393    9.9453    9.2838 C.3         1 ROC      -0.0261
     39 C41         3.1210   10.9894   10.3974 C.3         1 ROC      -0.0494
     40 C51         2.7400   12.3613    9.7888 C.3         1 ROC      -0.0528
     41 C61         1.5439   12.2263    8.8174 C.3         1 ROC      -0.0526
     42 C71         1.7946   11.1556    7.7231 C.3         1 ROC      -0.0451
     43 C7A         2.2599    9.7688    8.2777 C.3         1 ROC       0.0024
     44 C81         1.1133    8.9050    8.8813 C.3         1 ROC      -0.0266
     45 N3          3.2087    7.7420   12.7301 N.am        1 ROC      -0.2771
     46 CD          3.0046    7.8353   14.1587 C.3         1 ROC       0.0448
     47 C11         4.4041    7.6070   14.8025 C.3         1 ROC      -0.0396
     48 C22         2.0350    6.7109   14.6385 C.3         1 ROC      -0.0396
     49 C32         2.4786    9.2392   14.5929 C.3         1 ROC      -0.0396
     50 H1         -5.5691    3.5144   11.2747 H           1 ROC       0.0729
     51 H2         -6.6703    2.0592   12.8201 H           1 ROC       0.0774
     52 H3         -7.3191   -0.2827   13.5114 H           1 ROC       0.0657
     53 H4         -7.2463   -2.6640   13.0761 H           1 ROC       0.0652
     54 H5         -6.1578   -3.5082   11.0843 H           1 ROC       0.0657
     55 H6         -5.2089   -1.9730    9.4644 H           1 ROC       0.0653
     56 H7         -4.7806    4.5151    9.7051 H           1 ROC       0.1882
     57 H8         -3.4876    4.7060    7.2134 H           1 ROC       0.0826
     58 H9         -3.0607    7.0491    7.9090 H           1 ROC       0.0551
     59 H10        -3.6431    6.6983    9.5404 H           1 ROC       0.0551
     60 H11        -6.3257    8.3060    7.6208 H           1 ROC       0.1814
     61 H12        -4.7546    8.7621    7.9901 H           1 ROC       0.1814
     62 H13         1.2820    4.6839    9.2655 H           1 ROC       0.0672
     63 H14         2.2521    4.3317   11.1363 H           1 ROC       0.2101
     64 H15        -0.5918    4.6014   11.6442 H           1 ROC       0.0606
     65 H16        -2.4228    4.7394   10.5663 H           1 ROC       0.1857
     66 H17         0.7579    2.6030   11.2329 H           1 ROC       0.0449
     67 H18         0.2060    2.5375    9.5680 H           1 ROC       0.0449
     68 H19        -0.0357    0.1359   10.2289 H           1 ROC       0.0557
     69 H20        -2.4818    3.0798   12.0314 H           1 ROC       0.0557
     70 H21        -1.5878   -1.5669   10.9400 H           1 ROC       0.0599
     71 H22        -3.9914    1.3643   12.7413 H           1 ROC       0.0599
     72 H23        -3.5646   -0.9657   12.2042 H           1 ROC       0.0559
     73 H24         2.0351    7.1445    8.5257 H           1 ROC       0.2057
     74 H25        -0.1768    7.0651   10.4725 H           1 ROC       0.0841
     75 H26        -0.1565    6.5382    8.8051 H           1 ROC       0.0841
     76 H27         3.2136    6.6977   10.3818 H           1 ROC       0.1100
     77 H28         4.3667    8.0251    8.9943 H           1 ROC       0.0348
     78 H29         4.6606    8.6822   10.5881 H           1 ROC       0.0348
     79 H30         4.2932   10.3417    8.7266 H           1 ROC       0.0309
     80 H31         3.9895   11.1163   11.0449 H           1 ROC       0.0268
     81 H32         2.2955   10.6581   11.0233 H           1 ROC       0.0268
     82 H33         3.6016   12.7779    9.2615 H           1 ROC       0.0265
     83 H34         2.4788   13.0523   10.5938 H           1 ROC       0.0265
     84 H35         1.3618   13.1911    8.3397 H           1 ROC       0.0265
     85 H36         0.6486   11.9645    9.3834 H           1 ROC       0.0265
     86 H37         2.5691   11.5295    7.0489 H           1 ROC       0.0270
     87 H38         0.8878   11.0326    7.1282 H           1 ROC       0.0270
     88 H39         2.6389    9.2034    7.4156 H           1 ROC       0.0355
     89 H40         0.6181    9.4409    9.6885 H           1 ROC       0.0818
     90 H41         0.3695    8.7605    8.0924 H           1 ROC       0.0818
     91 H42         4.0823    7.4267   12.4446 H           1 ROC       0.1859
     92 H43         4.3500    7.6553   15.8936 H           1 ROC       0.0254
     93 H44         5.1125    8.3686   14.4622 H           1 ROC       0.0254
     94 H45         4.8037    6.6272   14.5252 H           1 ROC       0.0254
     95 H46         1.9543    6.7045   15.7294 H           1 ROC       0.0254
     96 H47         2.3967    5.7297   14.3160 H           1 ROC       0.0254
     97 H48         1.0315    6.8510   14.2277 H           1 ROC       0.0254
     98 H49         2.4961    9.3444   15.6800 H           1 ROC       0.0254
     99 H50         1.4481    9.3990   14.2718 H           1 ROC       0.0254
    100 H51         3.0965   10.0295   14.1601 H           1 ROC       0.0254
@<TRIPOS>BOND
     1     1     2   2
     2     1     4   1
     3    13     1  am
     4     4     3  ar
     5     3    12  ar
     6     4     5  ar
     7     5     6  ar
     8     6    11  ar
     9     7     8  ar
    10    11     7  ar
    11     9     8  ar
    12    10     9  ar
    13    12    10  ar
    14    12    11  ar
    15    14    13   1
    16    15    14   1
    17    14    17   1
    18    15    16   2
    19    24    15  am
    20    17    18   1
    21    18    19   2
    22    18    20  am
    23    21    22   1
    24    23    21   1
    25    21    33   1
    26    23    24   1
    27    23    25   1
    28    25    26   1
    29    26    27  ar
    30    26    28  ar
    31    27    29  ar
    32    28    30  ar
    33    29    31  ar
    34    30    31  ar
    35    33    32   1
    36    32    34   1
    37    32    44   1
    38    34    35   1
    39    34    37   1
    40    35    36   2
    41    35    45  am
    42    37    38   1
    43    38    39   1
    44    38    43   1
    45    39    40   1
    46    40    41   1
    47    41    42   1
    48    42    43   1
    49    43    44   1
    50    45    46   1
    51    46    47   1
    52    46    48   1
    53    46    49   1
    54     5    50   1
    55     6    51   1
    56     7    52   1
    57     8    53   1
    58     9    54   1
    59    10    55   1
    60    13    56   1
    61    14    57   1
    62    17    58   1
    63    17    59   1
    64    20    60   1
    65    20    61   1
    66    21    62   1
    67    22    63   1
    68    23    64   1
    69    24    65   1
    70    25    66   1
    71    25    67   1
    72    27    68   1
    73    28    69   1
    74    29    70   1
    75    30    71   1
    76    31    72   1
    77    32    73   1
    78    33    74   1
    79    33    75   1
    80    34    76   1
    81    37    77   1
    82    37    78   1
    83    38    79   1
    84    39    80   1
    85    39    81   1
    86    40    82   1
    87    40    83   1
    88    41    84   1
    89    41    85   1
    90    42    86   1
    91    42    87   1
    92    43    88   1
    93    44    89   1
    94    44    90   1
    95    45    91   1
    96    47    92   1
    97    47    93   1
    98    47    94   1
    99    48    95   1
   100    48    96   1
   101    48    97   1
   102    49    98   1
   103    49    99   1
   104    49   100   1
@<TRIPOS>SUBSTRUCTURE
     1  ROC      1

