@<TRIPOS>MOLECULE
3pww_ligand_090
   100   104
SMALL
GAST_HUCK
****
This file was generated by PARSER (from files_GN.cpp)

@<TRIPOS>ATOM
      1 C          -0.0439    7.3775    9.3955 C.2         1 ROC       0.2293
      2 O          -0.5124    7.3652   10.5260 O.2         1 ROC      -0.3762
      3 N1          1.2983    9.2430   10.0109 N.ar        1 ROC      -0.2737
      4 C2          0.8345    8.4044    9.0403 C.ar        1 ROC       0.1219
      5 C3          1.3155    8.6064    7.7219 C.ar        1 ROC      -0.0136
      6 C4          2.2458    9.6263    7.4561 C.ar        1 ROC      -0.0314
      7 C5          3.6291   11.5012    8.2693 C.ar        1 ROC      -0.0444
      8 C6          4.0438   12.3210    9.3336 C.ar        1 ROC      -0.0546
      9 C7          3.5447   12.0992   10.6318 C.ar        1 ROC      -0.0545
     10 C8          2.6213   11.0621   10.8678 C.ar        1 ROC      -0.0370
     11 C4A         2.6986   10.4647    8.4957 C.ar        1 ROC       0.0097
     12 C8A         2.1909   10.2477    9.8028 C.ar        1 ROC       0.0527
     13 N          -0.3249    6.3779    8.5633 N.am        1 ROC      -0.2600
     14 CA         -1.0375    5.1492    8.7981 C.3         1 ROC       0.1473
     15 C1         -2.4744    5.3611    8.9612 C.2         1 ROC       0.2045
     16 O1         -2.8878    6.0125    9.9096 O.2         1 ROC      -0.3943
     17 CB         -0.4320    4.2605    9.9321 C.3         1 ROC       0.0773
     18 CG          0.8453    3.6547    9.5809 C.2         1 ROC       0.1780
     19 OD1         0.9609    2.4387    9.5254 O.2         1 ROC      -0.3970
     20 ND2         1.8917    4.3840    9.2667 N.am        1 ROC      -0.3007
     21 C9         -5.3476    3.4354    8.2500 C.3         1 ROC       0.1194
     22 O2         -4.6496    2.4557    7.4698 O.3         1 ROC      -0.3840
     23 CA1        -4.7444    4.8692    8.0346 C.3         1 ROC       0.0823
     24 N2         -3.3079    4.7882    8.0996 N.am        1 ROC      -0.2772
     25 CB1        -5.1286    5.5732    6.6845 C.3         1 ROC       0.0066
     26 CG1        -6.0637    6.7205    6.8750 C.ar        1 ROC      -0.0408
     27 CD1        -5.6297    7.8698    7.5841 C.ar        1 ROC      -0.0603
     28 CD2        -7.3881    6.6911    6.3848 C.ar        1 ROC      -0.0603
     29 CE1        -6.5056    8.9484    7.8111 C.ar        1 ROC      -0.0686
     30 CE2        -8.2641    7.7718    6.6097 C.ar        1 ROC      -0.0686
     31 CZ         -7.8209    8.8990    7.3266 C.ar        1 ROC      -0.0687
     32 N11        -7.7172    2.4267    8.8648 N.4         1 ROC       0.2562
     33 CM         -6.8771    3.2810    7.9502 C.3         1 ROC      -0.0008
     34 C21        -7.1696    1.1040    9.3511 C.3         1 ROC       0.0688
     35 CC         -6.7949    0.0655    8.3801 C.2         1 ROC       0.2251
     36 O3         -6.1928   -0.9023    8.8221 O.2         1 ROC      -0.3909
     37 C31        -8.1066    0.5737   10.4917 C.3         1 ROC       0.0113
     38 C3A        -9.6210    0.4916   10.1266 C.3         1 ROC      -0.0261
     39 C41        -9.9697   -0.7449    9.2458 C.3         1 ROC      -0.0494
     40 C51       -11.4713   -0.7875    8.8699 C.3         1 ROC      -0.0528
     41 C61       -11.9195    0.5247    8.1807 C.3         1 ROC      -0.0526
     42 C71       -11.5993    1.7636    9.0576 C.3         1 ROC      -0.0451
     43 C7A       -10.1066    1.8429    9.5114 C.3         1 ROC       0.0024
     44 C81        -9.1482    2.3501    8.3955 C.3         1 ROC      -0.0266
     45 N3         -7.0925    0.1423    7.0866 N.am        1 ROC      -0.2771
     46 CD         -6.8614   -0.7659    5.9846 C.3         1 ROC       0.0448
     47 C11        -5.9298   -1.9955    6.2480 C.3         1 ROC      -0.0396
     48 C22        -6.2299    0.0956    4.8491 C.3         1 ROC      -0.0396
     49 C32        -8.2586   -1.2829    5.5258 C.3         1 ROC      -0.0396
     50 H1          1.0022    8.0233    6.9428 H           1 ROC       0.0729
     51 H2          2.5892    9.7530    6.4992 H           1 ROC       0.0774
     52 H3          4.0118   11.6630    7.3350 H           1 ROC       0.0657
     53 H4          4.7159   13.0731    9.1673 H           1 ROC       0.0652
     54 H5          3.8609   12.6888   11.4064 H           1 ROC       0.0657
     55 H6          2.2710   10.9031   11.8160 H           1 ROC       0.0653
     56 H7          0.0622    6.4439    7.6811 H           1 ROC       0.1882
     57 H8         -0.8945    4.5826    7.8707 H           1 ROC       0.0826
     58 H9         -1.1418    3.4613   10.1737 H           1 ROC       0.0551
     59 H10        -0.2997    4.8450   10.8440 H           1 ROC       0.0551
     60 H11         2.7072    3.9559    8.9641 H           1 ROC       0.1814
     61 H12         1.8370    5.3515    9.2780 H           1 ROC       0.1814
     62 H13        -5.1704    3.2006    9.3021 H           1 ROC       0.0672
     63 H14        -3.7400    2.4149    7.8507 H           1 ROC       0.2101
     64 H15        -5.1036    5.4742    8.8724 H           1 ROC       0.0606
     65 H16        -2.8924    4.2692    7.3873 H           1 ROC       0.1857
     66 H17        -5.5527    4.8397    5.9961 H           1 ROC       0.0449
     67 H18        -4.2440    5.9696    6.1756 H           1 ROC       0.0449
     68 H19        -4.6760    7.9200    7.9550 H           1 ROC       0.0557
     69 H20        -7.7319    5.8774    5.8672 H           1 ROC       0.0557
     70 H21        -6.1804    9.7661    8.3305 H           1 ROC       0.0599
     71 H22        -9.2216    7.7356    6.2568 H           1 ROC       0.0599
     72 H23        -8.4568    9.6804    7.4915 H           1 ROC       0.0559
     73 H24        -7.7546    3.0033    9.7061 H           1 ROC       0.2057
     74 H25        -7.0012    2.9533    6.9135 H           1 ROC       0.0841
     75 H26        -7.3142    4.2812    8.0017 H           1 ROC       0.0841
     76 H27        -6.2398    1.3422    9.8697 H           1 ROC       0.1100
     77 H28        -8.0181    1.2666   11.3370 H           1 ROC       0.0348
     78 H29        -7.7609   -0.3969   10.8565 H           1 ROC       0.0348
     79 H30       -10.1611    0.3470   11.0719 H           1 ROC       0.0309
     80 H31        -9.7098   -1.6625    9.7826 H           1 ROC       0.0268
     81 H32        -9.3909   -0.7190    8.3283 H           1 ROC       0.0268
     82 H33       -12.0692   -0.9512    9.7719 H           1 ROC       0.0265
     83 H34       -11.6456   -1.6298    8.1951 H           1 ROC       0.0265
     84 H35       -12.9964    0.4818    7.9964 H           1 ROC       0.0265
     85 H36       -11.4211    0.6184    7.2139 H           1 ROC       0.0265
     86 H37       -12.2355    1.7261    9.9479 H           1 ROC       0.0270
     87 H38       -11.8711    2.6691    8.5093 H           1 ROC       0.0270
     88 H39       -10.0656    2.5931   10.3078 H           1 ROC       0.0355
     89 H40        -9.2361    1.7162    7.5141 H           1 ROC       0.0818
     90 H41        -9.4960    3.3452    8.1042 H           1 ROC       0.0818
     91 H42        -7.5800    0.9355    6.8321 H           1 ROC       0.1859
     92 H43        -5.7670   -2.5639    5.3298 H           1 ROC       0.0254
     93 H44        -6.3704   -2.6725    6.9846 H           1 ROC       0.0254
     94 H45        -4.9572   -1.6660    6.6203 H           1 ROC       0.0254
     95 H46        -6.0850   -0.4969    3.9422 H           1 ROC       0.0254
     96 H47        -5.2586    0.4852    5.1663 H           1 ROC       0.0254
     97 H48        -6.8740    0.9434    4.6004 H           1 ROC       0.0254
     98 H49        -8.1742   -1.8836    4.6182 H           1 ROC       0.0254
     99 H50        -8.9371   -0.4518    5.3206 H           1 ROC       0.0254
    100 H51        -8.7114   -1.9057    6.3009 H           1 ROC       0.0254
@<TRIPOS>BOND
     1     1     2   2
     2     1     4   1
     3    13     1  am
     4     4     3  ar
     5     3    12  ar
     6     4     5  ar
     7     5     6  ar
     8     6    11  ar
     9     7     8  ar
    10    11     7  ar
    11     9     8  ar
    12    10     9  ar
    13    12    10  ar
    14    12    11  ar
    15    14    13   1
    16    15    14   1
    17    14    17   1
    18    15    16   2
    19    24    15  am
    20    17    18   1
    21    18    19   2
    22    18    20  am
    23    21    22   1
    24    23    21   1
    25    21    33   1
    26    23    24   1
    27    23    25   1
    28    25    26   1
    29    26    27  ar
    30    26    28  ar
    31    27    29  ar
    32    28    30  ar
    33    29    31  ar
    34    30    31  ar
    35    33    32   1
    36    32    34   1
    37    32    44   1
    38    34    35   1
    39    34    37   1
    40    35    36   2
    41    35    45  am
    42    37    38   1
    43    38    39   1
    44    38    43   1
    45    39    40   1
    46    40    41   1
    47    41    42   1
    48    42    43   1
    49    43    44   1
    50    45    46   1
    51    46    47   1
    52    46    48   1
    53    46    49   1
    54     5    50   1
    55     6    51   1
    56     7    52   1
    57     8    53   1
    58     9    54   1
    59    10    55   1
    60    13    56   1
    61    14    57   1
    62    17    58   1
    63    17    59   1
    64    20    60   1
    65    20    61   1
    66    21    62   1
    67    22    63   1
    68    23    64   1
    69    24    65   1
    70    25    66   1
    71    25    67   1
    72    27    68   1
    73    28    69   1
    74    29    70   1
    75    30    71   1
    76    31    72   1
    77    32    73   1
    78    33    74   1
    79    33    75   1
    80    34    76   1
    81    37    77   1
    82    37    78   1
    83    38    79   1
    84    39    80   1
    85    39    81   1
    86    40    82   1
    87    40    83   1
    88    41    84   1
    89    41    85   1
    90    42    86   1
    91    42    87   1
    92    43    88   1
    93    44    89   1
    94    44    90   1
    95    45    91   1
    96    47    92   1
    97    47    93   1
    98    47    94   1
    99    48    95   1
   100    48    96   1
   101    48    97   1
   102    49    98   1
   103    49    99   1
   104    49   100   1
@<TRIPOS>SUBSTRUCTURE
     1  ROC      1

