@<TRIPOS>MOLECULE
3pww_ligand_067
   100   104
SMALL
GAST_HUCK
****
This file was generated by PARSER (from files_GN.cpp)

@<TRIPOS>ATOM
      1 C          -2.6604    6.9269    8.3400 C.2         1 ROC       0.2293
      2 O          -3.1960    6.8285    9.4444 O.2         1 ROC      -0.3762
      3 N1         -4.3069    8.5125    7.6913 N.ar        1 ROC      -0.2737
      4 C2         -3.1233    7.8828    7.4389 C.ar        1 ROC       0.1219
      5 C3         -2.4054    8.2701    6.2779 C.ar        1 ROC      -0.0136
      6 C4         -2.9407    9.2371    5.4106 C.ar        1 ROC      -0.0314
      7 C5         -4.7597   10.7918    4.8330 C.ar        1 ROC      -0.0444
      8 C6         -6.0002   11.3682    5.1567 C.ar        1 ROC      -0.0546
      9 C7         -6.6605   11.0020    6.3470 C.ar        1 ROC      -0.0545
     10 C8         -6.0880   10.0504    7.2119 C.ar        1 ROC      -0.0370
     11 C4A        -4.1842    9.8366    5.6944 C.ar        1 ROC       0.0097
     12 C8A        -4.8574    9.4580    6.8871 C.ar        1 ROC       0.0527
     13 N          -1.6601    6.1006    8.0207 N.am        1 ROC      -0.2600
     14 CA         -0.9013    5.2366    8.8748 C.3         1 ROC       0.1473
     15 C1         -1.7606    4.4027    9.7136 C.2         1 ROC       0.2045
     16 O1         -2.2951    4.8947   10.7009 O.2         1 ROC      -0.3943
     17 CB          0.1936    6.0681    9.6255 C.3         1 ROC       0.0773
     18 CG          1.5491    5.5253    9.6360 C.2         1 ROC       0.1780
     19 OD1         2.4813    6.2596    9.9412 O.2         1 ROC      -0.3970
     20 ND2         1.8547    4.3025    9.2655 N.am        1 ROC      -0.3007
     21 C9         -4.5524    3.0090    9.5810 C.3         1 ROC       0.1194
     22 O2         -5.5473    2.4163   10.4159 O.3         1 ROC      -0.3840
     23 CA1        -3.1510    2.3300    9.7791 C.3         1 ROC       0.0823
     24 N2         -2.1036    3.1904    9.2819 N.am        1 ROC      -0.2772
     25 CB1        -2.8582    1.8403   11.2447 C.3         1 ROC       0.0066
     26 CG1        -3.3100    0.4435   11.4934 C.ar        1 ROC      -0.0408
     27 CD1        -4.6675    0.1625   11.7899 C.ar        1 ROC      -0.0603
     28 CD2        -2.4033   -0.6392   11.3825 C.ar        1 ROC      -0.0603
     29 CE1        -5.1111   -1.1632   11.9493 C.ar        1 ROC      -0.0686
     30 CE2        -2.8413   -1.9639   11.5444 C.ar        1 ROC      -0.0686
     31 CZ         -4.1957   -2.2243   11.8376 C.ar        1 ROC      -0.0687
     32 N11        -5.4521    1.6988    7.4775 N.4         1 ROC       0.2562
     33 CM         -5.0419    3.0322    8.0881 C.3         1 ROC      -0.0008
     34 C21        -5.4358    1.6636    5.9556 C.3         1 ROC       0.0688
     35 CC         -6.2903    2.6121    5.2264 C.2         1 ROC       0.2251
     36 O3         -7.1497    3.2619    5.8106 O.2         1 ROC      -0.3909
     37 C31        -5.6135    0.1780    5.4854 C.3         1 ROC       0.0113
     38 C3A        -6.8672   -0.5361    6.0701 C.3         1 ROC      -0.0261
     39 C41        -8.2116   -0.0946    5.4064 C.3         1 ROC      -0.0494
     40 C51        -9.4228   -0.8347    6.0203 C.3         1 ROC      -0.0528
     41 C61        -9.4806   -0.6437    7.5549 C.3         1 ROC      -0.0526
     42 C71        -8.1543   -1.0683    8.2358 C.3         1 ROC      -0.0451
     43 C7A        -6.8907   -0.3869    7.6250 C.3         1 ROC       0.0024
     44 C81        -6.7092    1.1009    8.0509 C.3         1 ROC      -0.0266
     45 N3         -6.0981    2.7867    3.9203 N.am        1 ROC      -0.2771
     46 CD         -6.7163    3.7257    3.0145 C.3         1 ROC       0.0448
     47 C11        -8.1346    4.1812    3.4848 C.3         1 ROC      -0.0396
     48 C22        -6.8663    2.9863    1.6442 C.3         1 ROC      -0.0396
     49 C32        -5.7798    4.9625    2.8328 C.3         1 ROC      -0.0396
     50 H1         -1.4878    7.8659    6.0675 H           1 ROC       0.0729
     51 H2         -2.4059    9.4993    4.5809 H           1 ROC       0.0774
     52 H3         -4.2864   11.0626    3.9652 H           1 ROC       0.0657
     53 H4         -6.4225   12.0461    4.5210 H           1 ROC       0.0652
     54 H5         -7.5610   11.4246    6.5737 H           1 ROC       0.0657
     55 H6         -6.5808    9.7852    8.0661 H           1 ROC       0.0653
     56 H7         -1.3277    6.1422    7.1081 H           1 ROC       0.1882
     57 H8         -0.3670    4.5751    8.1859 H           1 ROC       0.0826
     58 H9         -0.1241    6.2321   10.6613 H           1 ROC       0.0551
     59 H10         0.2635    7.0614    9.1575 H           1 ROC       0.0551
     60 H11         2.7804    4.0189    9.2485 H           1 ROC       0.1814
     61 H12         1.1698    3.6768    8.9851 H           1 ROC       0.1814
     62 H13        -4.4704    4.0499    9.9005 H           1 ROC       0.0672
     63 H14        -6.1966    3.1388   10.5546 H           1 ROC       0.2101
     64 H15        -3.0986    1.4513    9.1309 H           1 ROC       0.0606
     65 H16        -1.6157    2.8531    8.5052 H           1 ROC       0.1857
     66 H17        -3.3297    2.5096   11.9725 H           1 ROC       0.0449
     67 H18        -1.7835    1.8836   11.4587 H           1 ROC       0.0449
     68 H19        -5.3424    0.9247   11.8949 H           1 ROC       0.0557
     69 H20        -1.4187   -0.4650   11.1763 H           1 ROC       0.0557
     70 H21        -6.0917   -1.3553   12.1610 H           1 ROC       0.0599
     71 H22        -2.1823   -2.7404   11.4404 H           1 ROC       0.0599
     72 H23        -4.5137   -3.1858   11.9766 H           1 ROC       0.0559
     73 H24        -4.7076    1.0483    7.7399 H           1 ROC       0.2057
     74 H25        -4.2192    3.4694    7.4932 H           1 ROC       0.0841
     75 H26        -5.8853    3.7271    8.0265 H           1 ROC       0.0841
     76 H27        -4.4138    1.9404    5.6537 H           1 ROC       0.1100
     77 H28        -4.7289   -0.3693    5.8170 H           1 ROC       0.0348
     78 H29        -5.6324    0.0995    4.3995 H           1 ROC       0.0348
     79 H30        -6.7427   -1.6017    5.8420 H           1 ROC       0.0309
     80 H31        -8.1727   -0.2988    4.3322 H           1 ROC       0.0268
     81 H32        -8.3698    0.9738    5.5365 H           1 ROC       0.0268
     82 H33        -9.3559   -1.8998    5.7849 H           1 ROC       0.0265
     83 H34       -10.3392   -0.4497    5.5754 H           1 ROC       0.0265
     84 H35       -10.2942   -1.2466    7.9593 H           1 ROC       0.0265
     85 H36        -9.6917    0.4015    7.7890 H           1 ROC       0.0265
     86 H37        -8.0436   -2.1501    8.1278 H           1 ROC       0.0270
     87 H38        -8.2052   -0.8551    9.3056 H           1 ROC       0.0270
     88 H39        -6.0219   -0.9276    8.0177 H           1 ROC       0.0355
     89 H40        -7.5697    1.7030    7.7671 H           1 ROC       0.0818
     90 H41        -6.6659    1.1036    9.1365 H           1 ROC       0.0818
     91 H42        -5.4050    2.2339    3.5240 H           1 ROC       0.1859
     92 H43        -8.6374    4.7609    2.6979 H           1 ROC       0.0254
     93 H44        -8.0626    4.8111    4.3751 H           1 ROC       0.0254
     94 H45        -8.7542    3.3144    3.7211 H           1 ROC       0.0254
     95 H46        -7.3044    3.6432    0.8859 H           1 ROC       0.0254
     96 H47        -7.5150    2.1114    1.7554 H           1 ROC       0.0254
     97 H48        -5.8942    2.6454    1.2758 H           1 ROC       0.0254
     98 H49        -6.1974    5.6659    2.1069 H           1 ROC       0.0254
     99 H50        -4.7916    4.6496    2.4800 H           1 ROC       0.0254
    100 H51        -5.6490    5.4895    3.7813 H           1 ROC       0.0254
@<TRIPOS>BOND
     1     1     2   2
     2     1     4   1
     3    13     1  am
     4     4     3  ar
     5     3    12  ar
     6     4     5  ar
     7     5     6  ar
     8     6    11  ar
     9     7     8  ar
    10    11     7  ar
    11     9     8  ar
    12    10     9  ar
    13    12    10  ar
    14    12    11  ar
    15    14    13   1
    16    15    14   1
    17    14    17   1
    18    15    16   2
    19    24    15  am
    20    17    18   1
    21    18    19   2
    22    18    20  am
    23    21    22   1
    24    23    21   1
    25    21    33   1
    26    23    24   1
    27    23    25   1
    28    25    26   1
    29    26    27  ar
    30    26    28  ar
    31    27    29  ar
    32    28    30  ar
    33    29    31  ar
    34    30    31  ar
    35    33    32   1
    36    32    34   1
    37    32    44   1
    38    34    35   1
    39    34    37   1
    40    35    36   2
    41    35    45  am
    42    37    38   1
    43    38    39   1
    44    38    43   1
    45    39    40   1
    46    40    41   1
    47    41    42   1
    48    42    43   1
    49    43    44   1
    50    45    46   1
    51    46    47   1
    52    46    48   1
    53    46    49   1
    54     5    50   1
    55     6    51   1
    56     7    52   1
    57     8    53   1
    58     9    54   1
    59    10    55   1
    60    13    56   1
    61    14    57   1
    62    17    58   1
    63    17    59   1
    64    20    60   1
    65    20    61   1
    66    21    62   1
    67    22    63   1
    68    23    64   1
    69    24    65   1
    70    25    66   1
    71    25    67   1
    72    27    68   1
    73    28    69   1
    74    29    70   1
    75    30    71   1
    76    31    72   1
    77    32    73   1
    78    33    74   1
    79    33    75   1
    80    34    76   1
    81    37    77   1
    82    37    78   1
    83    38    79   1
    84    39    80   1
    85    39    81   1
    86    40    82   1
    87    40    83   1
    88    41    84   1
    89    41    85   1
    90    42    86   1
    91    42    87   1
    92    43    88   1
    93    44    89   1
    94    44    90   1
    95    45    91   1
    96    47    92   1
    97    47    93   1
    98    47    94   1
    99    48    95   1
   100    48    96   1
   101    48    97   1
   102    49    98   1
   103    49    99   1
   104    49   100   1
@<TRIPOS>SUBSTRUCTURE
     1  ROC      1

