@<TRIPOS>MOLECULE
3pww_ligand_036
   100   104
SMALL
GAST_HUCK
****
This file was generated by PARSER (from files_GN.cpp)

@<TRIPOS>ATOM
      1 C          -0.2894    9.6797    8.4938 C.2         1 ROC       0.2293
      2 O          -1.0260    9.0299    7.7580 O.2         1 ROC      -0.3762
      3 N1         -1.7277   11.5587    8.1963 N.ar        1 ROC      -0.2737
      4 C2         -0.6093   11.0170    8.7658 C.ar        1 ROC       0.1219
      5 C3          0.1283   11.8450    9.6533 C.ar        1 ROC      -0.0136
      6 C4         -0.3005   13.1575    9.9226 C.ar        1 ROC      -0.0314
      7 C5         -1.9353   14.9753    9.5607 C.ar        1 ROC      -0.0444
      8 C6         -3.1061   15.4345    8.9297 C.ar        1 ROC      -0.0546
      9 C7         -3.8137   14.5928    8.0526 C.ar        1 ROC      -0.0545
     10 C8         -3.3494   13.2889    7.7964 C.ar        1 ROC      -0.0370
     11 C4A        -1.4633   13.6678    9.3114 C.ar        1 ROC       0.0097
     12 C8A        -2.1780   12.8201    8.4212 C.ar        1 ROC       0.0527
     13 N           0.7390    9.0678    9.0811 N.am        1 ROC      -0.2600
     14 CA          1.0530    7.6562    9.0899 C.3         1 ROC       0.1473
     15 C1         -0.0250    6.8632    9.6780 C.2         1 ROC       0.2045
     16 O1         -0.2883    7.0163   10.8642 O.2         1 ROC      -0.3943
     17 CB          2.4044    7.4591    9.8625 C.3         1 ROC       0.0773
     18 CG          2.6130    6.1695   10.5155 C.2         1 ROC       0.1780
     19 OD1         2.5601    6.0796   11.7378 O.2         1 ROC      -0.3970
     20 ND2         2.8642    5.0726    9.8394 N.am        1 ROC      -0.3007
     21 C9         -3.0229    5.4986    9.4571 C.3         1 ROC       0.1194
     22 O2         -3.4902    5.7917   10.7696 O.3         1 ROC      -0.3840
     23 CA1        -1.5582    4.9245    9.4266 C.3         1 ROC       0.0823
     24 N2         -0.6260    5.9207    8.9596 N.am        1 ROC      -0.2772
     25 CB1        -1.0230    4.2498   10.7420 C.3         1 ROC       0.0066
     26 CG1        -0.9585    2.7586   10.7315 C.ar        1 ROC      -0.0408
     27 CD1         0.1063    2.1021   10.0619 C.ar        1 ROC      -0.0603
     28 CD2        -1.8752    1.9638   11.4633 C.ar        1 ROC      -0.0603
     29 CE1         0.2532    0.7041   10.1230 C.ar        1 ROC      -0.0686
     30 CE2        -1.7327    0.5624   11.5274 C.ar        1 ROC      -0.0686
     31 CZ         -0.6655   -0.0666   10.8560 C.ar        1 ROC      -0.0687
     32 N11        -4.0429    4.4097    7.2766 N.4         1 ROC       0.2562
     33 CM         -4.1010    4.6075    8.7729 C.3         1 ROC      -0.0008
     34 C21        -3.7286    5.6301    6.4365 C.3         1 ROC       0.0688
     35 CC         -4.5510    6.8315    6.6215 C.2         1 ROC       0.2251
     36 O3         -5.5737    6.7827    7.2910 O.2         1 ROC      -0.3909
     37 C31        -3.6026    5.2399    4.9283 C.3         1 ROC       0.0113
     38 C3A        -4.7994    4.4205    4.3642 C.3         1 ROC      -0.0261
     39 C41        -6.0710    5.2762    4.0653 C.3         1 ROC      -0.0494
     40 C51        -7.2400    4.4165    3.5207 C.3         1 ROC      -0.0528
     41 C61        -7.5775    3.2447    4.4788 C.3         1 ROC      -0.0526
     42 C71        -6.3262    2.3776    4.7826 C.3         1 ROC      -0.0451
     43 C7A        -5.1025    3.2030    5.2970 C.3         1 ROC       0.0024
     44 C81        -5.2373    3.6358    6.7871 C.3         1 ROC      -0.0266
     45 N3         -4.1509    7.9741    6.0750 N.am        1 ROC      -0.2771
     46 CD         -4.7675    9.2791    6.1308 C.3         1 ROC       0.0448
     47 C11        -6.1763    9.2648    5.4578 C.3         1 ROC      -0.0396
     48 C22        -3.8374   10.2401    5.3265 C.3         1 ROC      -0.0396
     49 C32        -4.8618    9.7854    7.6039 C.3         1 ROC      -0.0396
     50 H1          0.9705   11.5043   10.1239 H           1 ROC       0.0729
     51 H2          0.2381   13.7314   10.5768 H           1 ROC       0.0774
     52 H3         -1.4330   15.5973   10.1996 H           1 ROC       0.0657
     53 H4         -3.4456   16.3816    9.1136 H           1 ROC       0.0652
     54 H5         -4.6670   14.9290    7.6038 H           1 ROC       0.0657
     55 H6         -3.8706   12.6859    7.1613 H           1 ROC       0.0653
     56 H7          1.3181    9.6242    9.6209 H           1 ROC       0.1882
     57 H8          1.2192    7.3456    8.0526 H           1 ROC       0.0826
     58 H9          2.5039    8.2496   10.6203 H           1 ROC       0.0551
     59 H10         3.2286    7.6056    9.1499 H           1 ROC       0.0551
     60 H11         3.0193    4.2290   10.3029 H           1 ROC       0.1814
     61 H12         2.9511    5.1091    8.8736 H           1 ROC       0.1814
     62 H13        -3.0368    6.4678    8.9610 H           1 ROC       0.0672
     63 H14        -3.6112    4.9288   11.2117 H           1 ROC       0.2101
     64 H15        -1.5237    4.1690    8.6361 H           1 ROC       0.0606
     65 H16        -0.3600    5.8636    8.0268 H           1 ROC       0.1857
     66 H17        -1.6162    4.5800   11.5911 H           1 ROC       0.0449
     67 H18        -0.0059    4.6041   10.9620 H           1 ROC       0.0449
     68 H19         0.8004    2.6472    9.5426 H           1 ROC       0.0557
     69 H20        -2.6518    2.4002   11.9699 H           1 ROC       0.0557
     70 H21         1.0389    0.2451    9.6497 H           1 ROC       0.0599
     71 H22        -2.3881   -0.0011   12.0748 H           1 ROC       0.0599
     72 H23        -0.5452   -1.0842   10.9238 H           1 ROC       0.0559
     73 H24        -3.2475    3.7851    7.1235 H           1 ROC       0.2057
     74 H25        -5.0793    5.0228    9.0351 H           1 ROC       0.0841
     75 H26        -4.0522    3.6235    9.2502 H           1 ROC       0.0841
     76 H27        -2.7153    5.9255    6.7239 H           1 ROC       0.1100
     77 H28        -2.7086    4.6216    4.8273 H           1 ROC       0.0348
     78 H29        -3.4371    6.1154    4.2977 H           1 ROC       0.0348
     79 H30        -4.4792    4.0141    3.3957 H           1 ROC       0.0309
     80 H31        -5.8300    6.0432    3.3256 H           1 ROC       0.0268
     81 H32        -6.4219    5.7824    4.9655 H           1 ROC       0.0268
     82 H33        -6.9720    4.0156    2.5383 H           1 ROC       0.0265
     83 H34        -8.1281    5.0454    3.3959 H           1 ROC       0.0265
     84 H35        -8.3486    2.6168    4.0202 H           1 ROC       0.0265
     85 H36        -7.9872    3.6418    5.4142 H           1 ROC       0.0265
     86 H37        -6.0426    1.8616    3.8597 H           1 ROC       0.0270
     87 H38        -6.5928    1.6059    5.5111 H           1 ROC       0.0270
     88 H39        -4.2367    2.5306    5.2475 H           1 ROC       0.0355
     89 H40        -6.1484    4.2197    6.9281 H           1 ROC       0.0818
     90 H41        -5.3397    2.7248    7.3815 H           1 ROC       0.0818
     91 H42        -3.3244    7.9248    5.5697 H           1 ROC       0.1859
     92 H43        -6.5864   10.2758    5.3982 H           1 ROC       0.0254
     93 H44        -6.8784    8.6531    6.0260 H           1 ROC       0.0254
     94 H45        -6.1115    8.8586    4.4455 H           1 ROC       0.0254
     95 H46        -4.2413   11.2554    5.3109 H           1 ROC       0.0254
     96 H47        -3.7343    9.8997    4.2918 H           1 ROC       0.0254
     97 H48        -2.8388   10.2761    5.7711 H           1 ROC       0.0254
     98 H49        -5.2278   10.8149    7.6360 H           1 ROC       0.0254
     99 H50        -3.8799    9.7532    8.0819 H           1 ROC       0.0254
    100 H51        -5.5450    9.1685    8.1904 H           1 ROC       0.0254
@<TRIPOS>BOND
     1     1     2   2
     2     1     4   1
     3    13     1  am
     4     4     3  ar
     5     3    12  ar
     6     4     5  ar
     7     5     6  ar
     8     6    11  ar
     9     7     8  ar
    10    11     7  ar
    11     9     8  ar
    12    10     9  ar
    13    12    10  ar
    14    12    11  ar
    15    14    13   1
    16    15    14   1
    17    14    17   1
    18    15    16   2
    19    24    15  am
    20    17    18   1
    21    18    19   2
    22    18    20  am
    23    21    22   1
    24    23    21   1
    25    21    33   1
    26    23    24   1
    27    23    25   1
    28    25    26   1
    29    26    27  ar
    30    26    28  ar
    31    27    29  ar
    32    28    30  ar
    33    29    31  ar
    34    30    31  ar
    35    33    32   1
    36    32    34   1
    37    32    44   1
    38    34    35   1
    39    34    37   1
    40    35    36   2
    41    35    45  am
    42    37    38   1
    43    38    39   1
    44    38    43   1
    45    39    40   1
    46    40    41   1
    47    41    42   1
    48    42    43   1
    49    43    44   1
    50    45    46   1
    51    46    47   1
    52    46    48   1
    53    46    49   1
    54     5    50   1
    55     6    51   1
    56     7    52   1
    57     8    53   1
    58     9    54   1
    59    10    55   1
    60    13    56   1
    61    14    57   1
    62    17    58   1
    63    17    59   1
    64    20    60   1
    65    20    61   1
    66    21    62   1
    67    22    63   1
    68    23    64   1
    69    24    65   1
    70    25    66   1
    71    25    67   1
    72    27    68   1
    73    28    69   1
    74    29    70   1
    75    30    71   1
    76    31    72   1
    77    32    73   1
    78    33    74   1
    79    33    75   1
    80    34    76   1
    81    37    77   1
    82    37    78   1
    83    38    79   1
    84    39    80   1
    85    39    81   1
    86    40    82   1
    87    40    83   1
    88    41    84   1
    89    41    85   1
    90    42    86   1
    91    42    87   1
    92    43    88   1
    93    44    89   1
    94    44    90   1
    95    45    91   1
    96    47    92   1
    97    47    93   1
    98    47    94   1
    99    48    95   1
   100    48    96   1
   101    48    97   1
   102    49    98   1
   103    49    99   1
   104    49   100   1
@<TRIPOS>SUBSTRUCTURE
     1  ROC      1

