@<TRIPOS>MOLECULE
3pww_ligand_028
   100   104
SMALL
GAST_HUCK
****
This file was generated by PARSER (from files_GN.cpp)

@<TRIPOS>ATOM
      1 C          -4.3758    2.3951    6.2143 C.2         1 ROC       0.2293
      2 O          -5.4552    1.9329    5.8716 O.2         1 ROC      -0.3762
      3 N1         -5.2279    4.5467    5.6970 N.ar        1 ROC      -0.2737
      4 C2         -4.1679    3.7690    6.0649 C.ar        1 ROC       0.1219
      5 C3         -2.9226    4.4144    6.2513 C.ar        1 ROC      -0.0136
      6 C4         -2.8114    5.8062    6.0573 C.ar        1 ROC      -0.0314
      7 C5         -3.8848    7.9649    5.4905 C.ar        1 ROC      -0.0444
      8 C6         -5.0460    8.6764    5.1318 C.ar        1 ROC      -0.0546
      9 C7         -6.2668    7.9974    4.9574 C.ar        1 ROC      -0.0545
     10 C8         -6.3312    6.6043    5.1388 C.ar        1 ROC      -0.0370
     11 C4A        -3.9404    6.5663    5.6844 C.ar        1 ROC       0.0097
     12 C8A        -5.1736    5.8896    5.5063 C.ar        1 ROC       0.0527
     13 N          -3.4452    1.5672    6.6955 N.am        1 ROC      -0.2600
     14 CA         -3.5495    0.1290    6.7789 C.3         1 ROC       0.1473
     15 C1         -4.5989   -0.2850    7.7071 C.2         1 ROC       0.2045
     16 O1         -5.5706   -0.8947    7.2642 O.2         1 ROC      -0.3943
     17 CB         -2.1779   -0.5012    7.1751 C.3         1 ROC       0.0773
     18 CG         -1.0907   -0.3292    6.2235 C.2         1 ROC       0.1780
     19 OD1        -1.1812    0.3899    5.2387 O.2         1 ROC      -0.3970
     20 ND2         0.0455   -0.9606    6.4159 N.am        1 ROC      -0.3007
     21 C9         -6.2944    1.3062   10.0619 C.3         1 ROC       0.1194
     22 O2         -5.4526    2.2413   10.7446 O.3         1 ROC      -0.3840
     23 CA1        -5.5657   -0.0879    9.9848 C.3         1 ROC       0.0823
     24 N2         -4.5373    0.0682    8.9833 N.am        1 ROC      -0.2772
     25 CB1        -4.9193   -0.5960   11.3359 C.3         1 ROC       0.0066
     26 CG1        -5.4354   -1.8417   11.9943 C.ar        1 ROC      -0.0408
     27 CD1        -6.8286   -2.0794   12.1026 C.ar        1 ROC      -0.0603
     28 CD2        -4.5648   -2.6969   12.7192 C.ar        1 ROC      -0.0603
     29 CE1        -7.3377   -3.1186   12.9102 C.ar        1 ROC      -0.0686
     30 CE2        -5.0763   -3.7155   13.5535 C.ar        1 ROC      -0.0686
     31 CZ         -6.4603   -3.9335   13.6445 C.ar        1 ROC      -0.0687
     32 N11        -8.7891    0.8073    9.7398 N.4         1 ROC       0.2562
     33 CM         -7.7223    1.2962   10.6970 C.3         1 ROC      -0.0008
     34 C21        -9.3993    1.8439    8.8167 C.3         1 ROC       0.0688
     35 CC        -10.1529    2.9426    9.4410 C.2         1 ROC       0.2251
     36 O3        -10.3619    2.9423   10.6457 O.2         1 ROC      -0.3909
     37 C31       -10.1987    1.1071    7.6868 C.3         1 ROC       0.0113
     38 C3A       -11.2076    0.0276    8.1889 C.3         1 ROC      -0.0261
     39 C41       -12.5595    0.6086    8.7133 C.3         1 ROC      -0.0494
     40 C51       -13.5169   -0.5034    9.2198 C.3         1 ROC      -0.0528
     41 C61       -12.8446   -1.4134   10.2798 C.3         1 ROC      -0.0526
     42 C71       -11.5067   -1.9976    9.7610 C.3         1 ROC      -0.0451
     43 C7A       -10.5219   -0.9128    9.2298 C.3         1 ROC       0.0024
     44 C81        -9.8357   -0.0821   10.3529 C.3         1 ROC      -0.0266
     45 N3        -10.5605    3.9707    8.7019 N.am        1 ROC      -0.2771
     46 CD        -11.1466    5.2274    9.1153 C.3         1 ROC       0.0448
     47 C11       -11.7725    5.8550    7.8304 C.3         1 ROC      -0.0396
     48 C22       -10.0116    6.1511    9.6524 C.3         1 ROC      -0.0396
     49 C32       -12.2754    5.0826   10.1869 C.3         1 ROC      -0.0396
     50 H1         -2.0860    3.8916    6.5192 H           1 ROC       0.0729
     51 H2         -1.9045    6.2595    6.1922 H           1 ROC       0.0774
     52 H3         -3.0056    8.4732    5.6139 H           1 ROC       0.0657
     53 H4         -5.0034    9.6888    4.9969 H           1 ROC       0.0652
     54 H5         -7.1071    8.5177    4.6948 H           1 ROC       0.0657
     55 H6         -7.2207    6.1163    5.0068 H           1 ROC       0.0653
     56 H7         -2.5956    1.9516    6.9657 H           1 ROC       0.1882
     57 H8         -3.7878   -0.2436    5.7754 H           1 ROC       0.0826
     58 H9         -2.3202   -1.5759    7.3144 H           1 ROC       0.0551
     59 H10        -1.8540   -0.0838    8.1334 H           1 ROC       0.0551
     60 H11         0.7808   -0.8399    5.7947 H           1 ROC       0.1814
     61 H12         0.1457   -1.5580    7.1747 H           1 ROC       0.1814
     62 H13        -6.4059    1.7064    9.0488 H           1 ROC       0.0672
     63 H14        -5.8845    3.1149   10.6470 H           1 ROC       0.2101
     64 H15        -6.2920   -0.8279    9.6460 H           1 ROC       0.0606
     65 H16        -3.7594    0.5864    9.2502 H           1 ROC       0.1857
     66 H17        -5.0211    0.1866   12.0930 H           1 ROC       0.0449
     67 H18        -3.8399   -0.7112   11.1865 H           1 ROC       0.0449
     68 H19        -7.4865   -1.4763   11.6155 H           1 ROC       0.0557
     69 H20        -3.5521   -2.5507   12.6897 H           1 ROC       0.0557
     70 H21        -8.3463   -3.2553   12.9938 H           1 ROC       0.0599
     71 H22        -4.4429   -4.2838   14.1176 H           1 ROC       0.0599
     72 H23        -6.8252   -4.6715   14.2526 H           1 ROC       0.0559
     73 H24        -8.2772    0.1811    9.1133 H           1 ROC       0.2057
     74 H25        -7.9466    2.3130   11.0287 H           1 ROC       0.0841
     75 H26        -7.6815    0.6765   11.5981 H           1 ROC       0.0841
     76 H27        -8.5664    2.3360    8.3046 H           1 ROC       0.1100
     77 H28        -9.4687    0.5990    7.0489 H           1 ROC       0.0348
     78 H29       -10.7163    1.8172    7.0381 H           1 ROC       0.0348
     79 H30       -11.4577   -0.5911    7.3204 H           1 ROC       0.0309
     80 H31       -13.0551    1.1559    7.9064 H           1 ROC       0.0268
     81 H32       -12.3883    1.3130    9.5273 H           1 ROC       0.0268
     82 H33       -13.8410   -1.1153    8.3730 H           1 ROC       0.0265
     83 H34       -14.4078   -0.0433    9.6561 H           1 ROC       0.0265
     84 H35       -13.5217   -2.2347   10.5297 H           1 ROC       0.0265
     85 H36       -12.6684   -0.8419   11.1942 H           1 ROC       0.0265
     86 H37       -11.7299   -2.6915    8.9444 H           1 ROC       0.0270
     87 H38       -11.0360   -2.5806   10.5579 H           1 ROC       0.0270
     88 H39        -9.7183   -1.4560    8.7151 H           1 ROC       0.0355
     89 H40       -10.5723    0.4892   10.9210 H           1 ROC       0.0818
     90 H41        -9.3801   -0.7860   11.0462 H           1 ROC       0.0818
     91 H42       -10.3850    3.8915    7.7511 H           1 ROC       0.1859
     92 H43       -12.1918    6.8427    8.0352 H           1 ROC       0.0254
     93 H44       -12.5742    5.2173    7.4487 H           1 ROC       0.0254
     94 H45       -11.0233    5.9628    7.0419 H           1 ROC       0.0254
     95 H46       -10.4031    7.1315    9.9311 H           1 ROC       0.0254
     96 H47        -9.2408    6.2909    8.8914 H           1 ROC       0.0254
     97 H48        -9.5404    5.7099   10.5329 H           1 ROC       0.0254
     98 H49       -12.8179    6.0250   10.3115 H           1 ROC       0.0254
     99 H50       -11.8675    4.8229   11.1631 H           1 ROC       0.0254
    100 H51       -12.9853    4.3080    9.8913 H           1 ROC       0.0254
@<TRIPOS>BOND
     1     1     2   2
     2     1     4   1
     3    13     1  am
     4     4     3  ar
     5     3    12  ar
     6     4     5  ar
     7     5     6  ar
     8     6    11  ar
     9     7     8  ar
    10    11     7  ar
    11     9     8  ar
    12    10     9  ar
    13    12    10  ar
    14    12    11  ar
    15    14    13   1
    16    15    14   1
    17    14    17   1
    18    15    16   2
    19    24    15  am
    20    17    18   1
    21    18    19   2
    22    18    20  am
    23    21    22   1
    24    23    21   1
    25    21    33   1
    26    23    24   1
    27    23    25   1
    28    25    26   1
    29    26    27  ar
    30    26    28  ar
    31    27    29  ar
    32    28    30  ar
    33    29    31  ar
    34    30    31  ar
    35    33    32   1
    36    32    34   1
    37    32    44   1
    38    34    35   1
    39    34    37   1
    40    35    36   2
    41    35    45  am
    42    37    38   1
    43    38    39   1
    44    38    43   1
    45    39    40   1
    46    40    41   1
    47    41    42   1
    48    42    43   1
    49    43    44   1
    50    45    46   1
    51    46    47   1
    52    46    48   1
    53    46    49   1
    54     5    50   1
    55     6    51   1
    56     7    52   1
    57     8    53   1
    58     9    54   1
    59    10    55   1
    60    13    56   1
    61    14    57   1
    62    17    58   1
    63    17    59   1
    64    20    60   1
    65    20    61   1
    66    21    62   1
    67    22    63   1
    68    23    64   1
    69    24    65   1
    70    25    66   1
    71    25    67   1
    72    27    68   1
    73    28    69   1
    74    29    70   1
    75    30    71   1
    76    31    72   1
    77    32    73   1
    78    33    74   1
    79    33    75   1
    80    34    76   1
    81    37    77   1
    82    37    78   1
    83    38    79   1
    84    39    80   1
    85    39    81   1
    86    40    82   1
    87    40    83   1
    88    41    84   1
    89    41    85   1
    90    42    86   1
    91    42    87   1
    92    43    88   1
    93    44    89   1
    94    44    90   1
    95    45    91   1
    96    47    92   1
    97    47    93   1
    98    47    94   1
    99    48    95   1
   100    48    96   1
   101    48    97   1
   102    49    98   1
   103    49    99   1
   104    49   100   1
@<TRIPOS>SUBSTRUCTURE
     1  ROC      1

