@<TRIPOS>MOLECULE
3pww_ligand_070
   100   104
SMALL
GAST_HUCK
****
This file was generated by PARSER (from files_GN.cpp)

@<TRIPOS>ATOM
      1 C          -5.4905   -0.5965    6.0107 C.2         1 ROC       0.2293
      2 O          -5.3124   -1.3490    6.9664 O.2         1 ROC      -0.3762
      3 N1         -7.4549   -1.8259    5.5277 N.ar        1 ROC      -0.2737
      4 C2         -6.6612   -0.7483    5.2664 C.ar        1 ROC       0.1219
      5 C3         -7.1424    0.2098    4.3358 C.ar        1 ROC      -0.0136
      6 C4         -8.4136    0.0416    3.7538 C.ar        1 ROC      -0.0314
      7 C5        -10.5010   -1.2813    3.5441 C.ar        1 ROC      -0.0444
      8 C6        -11.2398   -2.4280    3.8972 C.ar        1 ROC      -0.0546
      9 C7        -10.6926   -3.3787    4.7775 C.ar        1 ROC      -0.0545
     10 C8         -9.4086   -3.1865    5.3193 C.ar        1 ROC      -0.0370
     11 C4A        -9.2065   -1.0803    4.0776 C.ar        1 ROC       0.0097
     12 C8A        -8.6724   -2.0362    4.9786 C.ar        1 ROC       0.0527
     13 N          -4.6379    0.4082    5.8143 N.am        1 ROC      -0.2600
     14 CA         -3.6432    0.8835    6.7418 C.3         1 ROC       0.1473
     15 C1         -3.2047    2.2146    6.3252 C.2         1 ROC       0.2045
     16 O1         -2.2752    2.3157    5.5257 O.2         1 ROC      -0.3943
     17 CB         -2.4829   -0.1351    7.0331 C.3         1 ROC       0.0773
     18 CG         -1.5785   -0.5216    5.9557 C.2         1 ROC       0.1780
     19 OD1        -1.7432   -0.1758    4.7914 O.2         1 ROC      -0.3970
     20 ND2        -0.5065   -1.2447    6.2045 N.am        1 ROC      -0.3007
     21 C9         -3.6826    5.4631    7.9100 C.3         1 ROC       0.1194
     22 O2         -4.9878    6.0402    7.9541 O.3         1 ROC      -0.3840
     23 CA1        -3.4092    4.6792    6.5754 C.3         1 ROC       0.0823
     24 N2         -3.8279    3.3065    6.7541 N.am        1 ROC      -0.2772
     25 CB1        -3.9371    5.3335    5.2535 C.3         1 ROC       0.0066
     26 CG1        -5.4114    5.4644    5.0688 C.ar        1 ROC      -0.0408
     27 CD1        -6.2628    4.3298    5.1570 C.ar        1 ROC      -0.0603
     28 CD2        -6.0011    6.7239    4.8126 C.ar        1 ROC      -0.0603
     29 CE1        -7.6537    4.4633    5.0028 C.ar        1 ROC      -0.0686
     30 CE2        -7.3909    6.8576    4.6452 C.ar        1 ROC      -0.0686
     31 CZ         -8.2223    5.7205    4.7614 C.ar        1 ROC      -0.0687
     32 N11        -1.1969    6.1942    8.5187 N.4         1 ROC       0.2562
     33 CM         -2.6486    6.5591    8.2915 C.3         1 ROC      -0.0008
     34 C21        -0.8780    4.8110    9.0430 C.3         1 ROC       0.0688
     35 CC         -1.6644    4.3056   10.1750 C.2         1 ROC       0.2251
     36 O3         -2.0650    5.0880   11.0243 O.2         1 ROC      -0.3909
     37 C31         0.6567    4.5872    9.2537 C.3         1 ROC       0.0113
     38 C3A         1.4360    5.7497    9.9421 C.3         1 ROC      -0.0261
     39 C41         1.3189    5.7580   11.4974 C.3         1 ROC      -0.0494
     40 C51         2.0920    6.9356   12.1407 C.3         1 ROC      -0.0528
     41 C61         1.6662    8.2986   11.5430 C.3         1 ROC      -0.0526
     42 C71         1.7843    8.3063    9.9952 C.3         1 ROC      -0.0451
     43 C7A         1.0418    7.1183    9.3029 C.3         1 ROC       0.0024
     44 C81        -0.5029    7.2956    9.2669 C.3         1 ROC      -0.0266
     45 N3         -2.0296    3.0224   10.1890 N.am        1 ROC      -0.2771
     46 CD         -2.7464    2.2726   11.1948 C.3         1 ROC       0.0448
     47 C11        -1.7562    1.7827   12.2943 C.3         1 ROC      -0.0396
     48 C22        -3.3453    1.0160   10.4896 C.3         1 ROC      -0.0396
     49 C32        -3.9186    3.0899   11.8220 C.3         1 ROC      -0.0396
     50 H1         -6.6035    1.0482    4.1039 H           1 ROC       0.0729
     51 H2         -8.7631    0.7486    3.1003 H           1 ROC       0.0774
     52 H3        -10.9077   -0.6029    2.8953 H           1 ROC       0.0657
     53 H4        -12.1750   -2.5713    3.5070 H           1 ROC       0.0652
     54 H5        -11.2339   -4.2087    5.0316 H           1 ROC       0.0657
     55 H6         -9.0226   -3.8747    5.9677 H           1 ROC       0.0653
     56 H7         -4.7584    0.9421    5.0132 H           1 ROC       0.1882
     57 H8         -4.1609    1.0074    7.7041 H           1 ROC       0.0826
     58 H9         -2.9272   -1.0624    7.4140 H           1 ROC       0.0551
     59 H10        -1.8691    0.2898    7.8392 H           1 ROC       0.0551
     60 H11         0.1457   -1.4149    5.4892 H           1 ROC       0.1814
     61 H12        -0.3382   -1.5781    7.1081 H           1 ROC       0.1814
     62 H13        -3.7058    4.7540    8.7377 H           1 ROC       0.0672
     63 H14        -4.9503    6.8102    7.3515 H           1 ROC       0.2101
     64 H15        -2.3240    4.6527    6.4491 H           1 ROC       0.0606
     65 H16        -4.5767    3.1569    7.3625 H           1 ROC       0.1857
     66 H17        -3.5626    4.7553    4.4050 H           1 ROC       0.0449
     67 H18        -3.4635    6.3186    5.1810 H           1 ROC       0.0449
     68 H19        -5.8734    3.4043    5.3282 H           1 ROC       0.0557
     69 H20        -5.4212    7.5671    4.7513 H           1 ROC       0.0557
     70 H21        -8.2593    3.6382    5.0866 H           1 ROC       0.0599
     71 H22        -7.8030    7.7748    4.4792 H           1 ROC       0.0599
     72 H23        -9.2345    5.8228    4.6567 H           1 ROC       0.0559
     73 H24        -0.7746    6.2120    7.5863 H           1 ROC       0.2057
     74 H25        -3.0443    7.0372    9.1923 H           1 ROC       0.0841
     75 H26        -2.6748    7.3066    7.4949 H           1 ROC       0.0841
     76 H27        -1.1132    4.1533    8.2030 H           1 ROC       0.1100
     77 H28         1.1043    4.4505    8.2661 H           1 ROC       0.0348
     78 H29         0.8409    3.6523    9.7893 H           1 ROC       0.0348
     79 H30         2.4972    5.5875    9.7210 H           1 ROC       0.0309
     80 H31         1.7053    4.8171   11.9002 H           1 ROC       0.0268
     81 H32         0.2771    5.8423   11.8011 H           1 ROC       0.0268
     82 H33         3.1641    6.7887   11.9867 H           1 ROC       0.0265
     83 H34         1.9095    6.9417   13.2205 H           1 ROC       0.0265
     84 H35         2.2990    9.0863   11.9586 H           1 ROC       0.0265
     85 H36         0.6359    8.5139   11.8346 H           1 ROC       0.0265
     86 H37         2.8457    8.2570    9.7323 H           1 ROC       0.0270
     87 H38         1.4055    9.2584    9.6164 H           1 ROC       0.0270
     88 H39         1.3661    7.1155    8.2574 H           1 ROC       0.0355
     89 H40        -0.8831    7.3620   10.2859 H           1 ROC       0.0818
     90 H41        -0.7123    8.2540    8.7810 H           1 ROC       0.0818
     91 H42        -1.7264    2.4991    9.4284 H           1 ROC       0.1859
     92 H43        -2.2748    1.2082   13.0670 H           1 ROC       0.0254
     93 H44        -1.2646    2.6250   12.7709 H           1 ROC       0.0254
     94 H45        -0.9814    1.1524   11.8521 H           1 ROC       0.0254
     95 H46        -3.8474    0.3755   11.2155 H           1 ROC       0.0254
     96 H47        -2.5659    0.4323    9.9831 H           1 ROC       0.0254
     97 H48        -4.0949    1.3073    9.7526 H           1 ROC       0.0254
     98 H49        -4.5304    2.4511   12.4636 H           1 ROC       0.0254
     99 H50        -4.5563    3.5101   11.0401 H           1 ROC       0.0254
    100 H51        -3.5471    3.9070   12.4380 H           1 ROC       0.0254
@<TRIPOS>BOND
     1     1     2   2
     2     1     4   1
     3    13     1  am
     4     4     3  ar
     5     3    12  ar
     6     4     5  ar
     7     5     6  ar
     8     6    11  ar
     9     7     8  ar
    10    11     7  ar
    11     9     8  ar
    12    10     9  ar
    13    12    10  ar
    14    12    11  ar
    15    14    13   1
    16    15    14   1
    17    14    17   1
    18    15    16   2
    19    24    15  am
    20    17    18   1
    21    18    19   2
    22    18    20  am
    23    21    22   1
    24    23    21   1
    25    21    33   1
    26    23    24   1
    27    23    25   1
    28    25    26   1
    29    26    27  ar
    30    26    28  ar
    31    27    29  ar
    32    28    30  ar
    33    29    31  ar
    34    30    31  ar
    35    33    32   1
    36    32    34   1
    37    32    44   1
    38    34    35   1
    39    34    37   1
    40    35    36   2
    41    35    45  am
    42    37    38   1
    43    38    39   1
    44    38    43   1
    45    39    40   1
    46    40    41   1
    47    41    42   1
    48    42    43   1
    49    43    44   1
    50    45    46   1
    51    46    47   1
    52    46    48   1
    53    46    49   1
    54     5    50   1
    55     6    51   1
    56     7    52   1
    57     8    53   1
    58     9    54   1
    59    10    55   1
    60    13    56   1
    61    14    57   1
    62    17    58   1
    63    17    59   1
    64    20    60   1
    65    20    61   1
    66    21    62   1
    67    22    63   1
    68    23    64   1
    69    24    65   1
    70    25    66   1
    71    25    67   1
    72    27    68   1
    73    28    69   1
    74    29    70   1
    75    30    71   1
    76    31    72   1
    77    32    73   1
    78    33    74   1
    79    33    75   1
    80    34    76   1
    81    37    77   1
    82    37    78   1
    83    38    79   1
    84    39    80   1
    85    39    81   1
    86    40    82   1
    87    40    83   1
    88    41    84   1
    89    41    85   1
    90    42    86   1
    91    42    87   1
    92    43    88   1
    93    44    89   1
    94    44    90   1
    95    45    91   1
    96    47    92   1
    97    47    93   1
    98    47    94   1
    99    48    95   1
   100    48    96   1
   101    48    97   1
   102    49    98   1
   103    49    99   1
   104    49   100   1
@<TRIPOS>SUBSTRUCTURE
     1  ROC      1

