@<TRIPOS>MOLECULE
3pww_ligand_048
   100   104
SMALL
GAST_HUCK
****
This file was generated by PARSER (from files_GN.cpp)

@<TRIPOS>ATOM
      1 C          -3.3745   -0.8483   10.2649 C.2         1 ROC       0.2293
      2 O          -2.2773   -0.5539   10.7254 O.2         1 ROC      -0.3762
      3 N1         -3.7699   -2.1816   12.1898 N.ar        1 ROC      -0.2737
      4 C2         -4.2426   -1.6140   11.0409 C.ar        1 ROC       0.1219
      5 C3         -5.5986   -1.8576   10.7028 C.ar        1 ROC      -0.0136
      6 C4         -6.4012   -2.6566   11.5368 C.ar        1 ROC      -0.0314
      7 C5         -6.6309   -4.0476   13.5632 C.ar        1 ROC      -0.0444
      8 C6         -6.0467   -4.5966   14.7201 C.ar        1 ROC      -0.0546
      9 C7         -4.7019   -4.3267   15.0294 C.ar        1 ROC      -0.0545
     10 C8         -3.9289   -3.5093   14.1845 C.ar        1 ROC      -0.0370
     11 C4A        -5.8642   -3.2305   12.7042 C.ar        1 ROC       0.0097
     12 C8A        -4.5054   -2.9625   13.0178 C.ar        1 ROC       0.0527
     13 N          -3.6948   -0.4751    9.0263 N.am        1 ROC      -0.2600
     14 CA         -2.9075    0.2751    8.0872 C.3         1 ROC       0.1473
     15 C1         -3.6818    1.4481    7.6801 C.2         1 ROC       0.2045
     16 O1         -4.8684    1.3185    7.3891 O.2         1 ROC      -0.3943
     17 CB         -2.5132   -0.6662    6.9049 C.3         1 ROC       0.0773
     18 CG         -1.3492   -0.2159    6.1654 C.2         1 ROC       0.1780
     19 OD1        -1.4480    0.6981    5.3595 O.2         1 ROC      -0.3970
     20 ND2        -0.1560   -0.7399    6.3729 N.am        1 ROC      -0.3007
     21 C9         -4.1087    4.1370    6.0189 C.3         1 ROC       0.1194
     22 O2         -2.9267    4.0236    5.2183 O.3         1 ROC      -0.3840
     23 CA1        -3.7421    3.9401    7.5275 C.3         1 ROC       0.0823
     24 N2         -3.1122    2.6460    7.7024 N.am        1 ROC      -0.2772
     25 CB1        -2.8411    5.0817    8.1117 C.3         1 ROC       0.0066
     26 CG1        -2.0155    4.6347    9.2757 C.ar        1 ROC      -0.0408
     27 CD1        -0.6160    4.4680    9.1383 C.ar        1 ROC      -0.0603
     28 CD2        -2.6310    4.2195   10.4800 C.ar        1 ROC      -0.0603
     29 CE1         0.1406    3.8574   10.1541 C.ar        1 ROC      -0.0686
     30 CE2        -1.8758    3.6007   11.4940 C.ar        1 ROC      -0.0686
     31 CZ         -0.4939    3.4059   11.3225 C.ar        1 ROC      -0.0687
     32 N11        -5.8162    5.4357    4.4358 N.4         1 ROC       0.2562
     33 CM         -4.8603    5.4508    5.6196 C.3         1 ROC      -0.0008
     34 C21        -7.2180    5.8949    4.7707 C.3         1 ROC       0.0688
     35 CC         -7.9554    5.1092    5.7647 C.2         1 ROC       0.2251
     36 O3         -7.5224    4.0272    6.1388 O.2         1 ROC      -0.3909
     37 C31        -8.0293    6.1285    3.4532 C.3         1 ROC       0.0113
     38 C3A        -8.0231    4.9214    2.4684 C.3         1 ROC      -0.0261
     39 C41        -8.9643    3.7499    2.8996 C.3         1 ROC      -0.0494
     40 C51        -8.9147    2.5580    1.9096 C.3         1 ROC      -0.0528
     41 C61        -7.4628    2.0553    1.7075 C.3         1 ROC      -0.0526
     42 C71        -6.5286    3.2083    1.2573 C.3         1 ROC      -0.0451
     43 C7A        -6.5577    4.4516    2.2053 C.3         1 ROC       0.0024
     44 C81        -5.7788    4.2317    3.5333 C.3         1 ROC      -0.0266
     45 N3         -9.0963    5.5864    6.2529 N.am        1 ROC      -0.2771
     46 CD        -10.0325    4.9709    7.1684 C.3         1 ROC       0.0448
     47 C11       -10.5956    3.6398    6.5786 C.3         1 ROC      -0.0396
     48 C22       -11.2109    5.9785    7.3373 C.3         1 ROC      -0.0396
     49 C32        -9.3792    4.7228    8.5642 C.3         1 ROC      -0.0396
     50 H1         -6.0228   -1.4506    9.8667 H           1 ROC       0.0729
     51 H2         -7.3794   -2.8147   11.2811 H           1 ROC       0.0774
     52 H3         -7.6076   -4.2550   13.3467 H           1 ROC       0.0657
     53 H4         -6.6054   -5.1948   15.3308 H           1 ROC       0.0652
     54 H5         -4.2755   -4.7363   15.8651 H           1 ROC       0.0657
     55 H6         -2.9504   -3.3215   14.4168 H           1 ROC       0.0653
     56 H7         -4.5517   -0.7789    8.6896 H           1 ROC       0.1882
     57 H8         -1.9823    0.6058    8.5636 H           1 ROC       0.0826
     58 H9         -3.3588   -0.7950    6.2214 H           1 ROC       0.0551
     59 H10        -2.2958   -1.6564    7.3115 H           1 ROC       0.0551
     60 H11         0.6092   -0.4117    5.8750 H           1 ROC       0.1814
     61 H12        -0.0393   -1.4317    7.0479 H           1 ROC       0.1814
     62 H13        -4.7454    3.2931    5.7690 H           1 ROC       0.0672
     63 H14        -2.2724    3.5356    5.7617 H           1 ROC       0.2101
     64 H15        -4.6695    3.9382    8.1155 H           1 ROC       0.0606
     65 H16        -2.1563    2.6546    7.8859 H           1 ROC       0.1857
     66 H17        -3.4705    5.9235    8.4248 H           1 ROC       0.0449
     67 H18        -2.1837    5.4624    7.3221 H           1 ROC       0.0449
     68 H19        -0.1462    4.7363    8.2720 H           1 ROC       0.0557
     69 H20        -3.6436    4.3076   10.5987 H           1 ROC       0.0557
     70 H21         1.1415    3.7005   10.0209 H           1 ROC       0.0599
     71 H22        -2.3375    3.2645   12.3406 H           1 ROC       0.0599
     72 H23         0.0535    2.9512   12.0558 H           1 ROC       0.0559
     73 H24        -5.4662    6.1867    3.8302 H           1 ROC       0.2057
     74 H25        -4.1046    6.2092    5.3930 H           1 ROC       0.0841
     75 H26        -5.3703    5.8196    6.5150 H           1 ROC       0.0841
     76 H27        -7.1065    6.8889    5.2209 H           1 ROC       0.1100
     77 H28        -7.5722    6.9768    2.9342 H           1 ROC       0.0348
     78 H29        -9.0591    6.4235    3.6707 H           1 ROC       0.0348
     79 H30        -8.4190    5.2939    1.5165 H           1 ROC       0.0309
     80 H31        -9.9929    4.1115    2.9662 H           1 ROC       0.0268
     81 H32        -8.6872    3.3664    3.8783 H           1 ROC       0.0268
     82 H33        -9.3335    2.8671    0.9472 H           1 ROC       0.0265
     83 H34        -9.5297    1.7389    2.2961 H           1 ROC       0.0265
     84 H35        -7.4596    1.2681    0.9464 H           1 ROC       0.0265
     85 H36        -7.0927    1.6143    2.6379 H           1 ROC       0.0265
     86 H37        -6.8490    3.5203    0.2581 H           1 ROC       0.0270
     87 H38        -5.5083    2.8271    1.1676 H           1 ROC       0.0270
     88 H39        -6.0400    5.2622    1.6842 H           1 ROC       0.0355
     89 H40        -6.1856    3.3571    4.0397 H           1 ROC       0.0818
     90 H41        -4.7414    4.0156    3.2699 H           1 ROC       0.0818
     91 H42        -9.3396    6.4726    5.9429 H           1 ROC       0.1859
     92 H43       -11.3651    3.2208    7.2331 H           1 ROC       0.0254
     93 H44        -9.8086    2.8921    6.4728 H           1 ROC       0.0254
     94 H45       -11.0325    3.8164    5.5921 H           1 ROC       0.0254
     95 H46       -11.9633    5.5920    8.0277 H           1 ROC       0.0254
     96 H47       -11.6971    6.1661    6.3787 H           1 ROC       0.0254
     97 H48       -10.8524    6.9333    7.7257 H           1 ROC       0.0254
     98 H49       -10.1275    4.3893    9.2882 H           1 ROC       0.0254
     99 H50        -8.9317    5.6428    8.9437 H           1 ROC       0.0254
    100 H51        -8.5993    3.9605    8.5073 H           1 ROC       0.0254
@<TRIPOS>BOND
     1     1     2   2
     2     1     4   1
     3    13     1  am
     4     4     3  ar
     5     3    12  ar
     6     4     5  ar
     7     5     6  ar
     8     6    11  ar
     9     7     8  ar
    10    11     7  ar
    11     9     8  ar
    12    10     9  ar
    13    12    10  ar
    14    12    11  ar
    15    14    13   1
    16    15    14   1
    17    14    17   1
    18    15    16   2
    19    24    15  am
    20    17    18   1
    21    18    19   2
    22    18    20  am
    23    21    22   1
    24    23    21   1
    25    21    33   1
    26    23    24   1
    27    23    25   1
    28    25    26   1
    29    26    27  ar
    30    26    28  ar
    31    27    29  ar
    32    28    30  ar
    33    29    31  ar
    34    30    31  ar
    35    33    32   1
    36    32    34   1
    37    32    44   1
    38    34    35   1
    39    34    37   1
    40    35    36   2
    41    35    45  am
    42    37    38   1
    43    38    39   1
    44    38    43   1
    45    39    40   1
    46    40    41   1
    47    41    42   1
    48    42    43   1
    49    43    44   1
    50    45    46   1
    51    46    47   1
    52    46    48   1
    53    46    49   1
    54     5    50   1
    55     6    51   1
    56     7    52   1
    57     8    53   1
    58     9    54   1
    59    10    55   1
    60    13    56   1
    61    14    57   1
    62    17    58   1
    63    17    59   1
    64    20    60   1
    65    20    61   1
    66    21    62   1
    67    22    63   1
    68    23    64   1
    69    24    65   1
    70    25    66   1
    71    25    67   1
    72    27    68   1
    73    28    69   1
    74    29    70   1
    75    30    71   1
    76    31    72   1
    77    32    73   1
    78    33    74   1
    79    33    75   1
    80    34    76   1
    81    37    77   1
    82    37    78   1
    83    38    79   1
    84    39    80   1
    85    39    81   1
    86    40    82   1
    87    40    83   1
    88    41    84   1
    89    41    85   1
    90    42    86   1
    91    42    87   1
    92    43    88   1
    93    44    89   1
    94    44    90   1
    95    45    91   1
    96    47    92   1
    97    47    93   1
    98    47    94   1
    99    48    95   1
   100    48    96   1
   101    48    97   1
   102    49    98   1
   103    49    99   1
   104    49   100   1
@<TRIPOS>SUBSTRUCTURE
     1  ROC      1

