@<TRIPOS>MOLECULE
3pww_ligand_002
   100   104
SMALL
GAST_HUCK
****
This file was generated by PARSER (from files_GN.cpp)

@<TRIPOS>ATOM
      1 C          -3.1722    7.4427    8.1622 C.2         1 ROC       0.2293
      2 O          -1.9593    7.4603    8.3094 O.2         1 ROC      -0.3762
      3 N1         -3.0808    9.8080    8.0013 N.ar        1 ROC      -0.2737
      4 C2         -3.8206    8.6619    7.9538 C.ar        1 ROC       0.1219
      5 C3         -5.2025    8.7882    7.6725 C.ar        1 ROC      -0.0136
      6 C4         -5.7625   10.0620    7.4515 C.ar        1 ROC      -0.0314
      7 C5         -5.4682   12.5180    7.3031 C.ar        1 ROC      -0.0444
      8 C6         -4.6157   13.6365    7.3934 C.ar        1 ROC      -0.0546
      9 C7         -3.2525   13.4660    7.6858 C.ar        1 ROC      -0.0545
     10 C8         -2.7268   12.1755    7.8860 C.ar        1 ROC      -0.0370
     11 C4A        -4.9549   11.2180    7.5122 C.ar        1 ROC       0.0097
     12 C8A        -3.5768   11.0545    7.8005 C.ar        1 ROC       0.0527
     13 N          -3.8098    6.2738    8.2026 N.am        1 ROC      -0.2600
     14 CA         -3.2218    4.9542    8.3253 C.3         1 ROC       0.1473
     15 C1         -2.3604    4.8391    9.5121 C.2         1 ROC       0.2045
     16 O1         -2.4962    5.6812   10.3942 O.2         1 ROC      -0.3943
     17 CB         -2.5614    4.5080    6.9764 C.3         1 ROC       0.0773
     18 CG         -3.3488    4.8079    5.7976 C.2         1 ROC       0.1780
     19 OD1        -3.0179    5.6980    5.0235 O.2         1 ROC      -0.3970
     20 ND2        -4.4222    4.1050    5.4986 N.am        1 ROC      -0.3007
     21 C9          0.8308    4.6603   10.3536 C.3         1 ROC       0.1194
     22 O2          1.5743    4.8367   11.5598 O.3         1 ROC      -0.3840
     23 CA1        -0.4287    3.7842   10.6815 C.3         1 ROC       0.0823
     24 N2         -1.4196    3.9019    9.6356 N.am        1 ROC      -0.2772
     25 CB1        -0.0612    2.2752   10.8551 C.3         1 ROC       0.0066
     26 CG1        -1.1428    1.2801   11.1301 C.ar        1 ROC      -0.0408
     27 CD1        -2.3917    1.6201   11.7099 C.ar        1 ROC      -0.0603
     28 CD2        -0.8822   -0.0907   10.8760 C.ar        1 ROC      -0.0603
     29 CE1        -3.3509    0.6299   11.9979 C.ar        1 ROC      -0.0686
     30 CE2        -1.8399   -1.0814   11.1643 C.ar        1 ROC      -0.0686
     31 CZ         -3.0739   -0.7199   11.7265 C.ar        1 ROC      -0.0687
     32 N11         1.6060    7.0386    9.5038 N.4         1 ROC       0.2562
     33 CM          0.4816    6.0652    9.7850 C.3         1 ROC      -0.0008
     34 C21         2.6723    7.2363   10.5613 C.3         1 ROC       0.0688
     35 CC          2.2344    7.5850   11.9176 C.2         1 ROC       0.2251
     36 O3          1.0744    7.9001   12.1177 O.2         1 ROC      -0.3909
     37 C31         3.8020    8.1813   10.0353 C.3         1 ROC       0.0113
     38 C3A         3.3066    9.5329    9.4434 C.3         1 ROC      -0.0261
     39 C41         2.8808   10.5827   10.5179 C.3         1 ROC      -0.0494
     40 C51         2.3812   11.9027    9.8740 C.3         1 ROC      -0.0528
     41 C61         1.2178   11.6332    8.8856 C.3         1 ROC      -0.0526
     42 C71         1.6211   10.6000    7.8025 C.3         1 ROC      -0.0451
     43 C7A         2.1869    9.2673    8.3895 C.3         1 ROC       0.0024
     44 C81         1.0730    8.3322    8.9539 C.3         1 ROC      -0.0266
     45 N3          3.1159    7.5565   12.9148 N.am        1 ROC      -0.2771
     46 CD          2.9117    7.8395   14.3192 C.3         1 ROC       0.0448
     47 C11         2.4702    9.3234   14.5267 C.3         1 ROC      -0.0396
     48 C22         4.2888    7.6202   15.0195 C.3         1 ROC      -0.0396
     49 C32         1.8749    6.8449   14.9308 C.3         1 ROC      -0.0396
     50 H1         -5.8117    7.9701    7.6182 H           1 ROC       0.0729
     51 H2         -6.7610   10.1385    7.2455 H           1 ROC       0.0774
     52 H3         -6.4581   12.6607    7.0910 H           1 ROC       0.0657
     53 H4         -4.9899   14.5780    7.2421 H           1 ROC       0.0652
     54 H5         -2.6365   14.2817    7.7500 H           1 ROC       0.0657
     55 H6         -1.7335   12.0569    8.0939 H           1 ROC       0.0653
     56 H7         -4.7735    6.2972    8.1311 H           1 ROC       0.1882
     57 H8         -4.0585    4.2748    8.5096 H           1 ROC       0.0826
     58 H9         -2.3916    3.4281    6.9884 H           1 ROC       0.0551
     59 H10        -1.5792    4.9850    6.8958 H           1 ROC       0.0551
     60 H11        -4.9224    4.3021    4.6935 H           1 ROC       0.1814
     61 H12        -4.7071    3.3838    6.0844 H           1 ROC       0.1814
     62 H13         1.4608    4.1473    9.6244 H           1 ROC       0.0672
     63 H14         2.1093    4.0144   11.6687 H           1 ROC       0.2101
     64 H15        -0.8308    4.1393   11.6402 H           1 ROC       0.0606
     65 H16        -1.3391    3.2563    8.9138 H           1 ROC       0.1857
     66 H17         0.6513    2.1799   11.6775 H           1 ROC       0.0449
     67 H18         0.4571    1.9669    9.9429 H           1 ROC       0.0449
     68 H19        -2.6140    2.5867   11.9439 H           1 ROC       0.0557
     69 H20         0.0146   -0.3810   10.4785 H           1 ROC       0.0557
     70 H21        -4.2457    0.8920   12.4214 H           1 ROC       0.0599
     71 H22        -1.6291   -2.0662   10.9800 H           1 ROC       0.0599
     72 H23        -3.7636   -1.4403   11.9456 H           1 ROC       0.0559
     73 H24         2.1086    6.6157    8.7215 H           1 ROC       0.2057
     74 H25        -0.2862    6.5149   10.4260 H           1 ROC       0.0841
     75 H26        -0.0005    5.8696    8.8261 H           1 ROC       0.0841
     76 H27         3.1669    6.2623   10.6612 H           1 ROC       0.1100
     77 H28         4.3309    7.6472    9.2361 H           1 ROC       0.0348
     78 H29         4.5468    8.3756   10.8125 H           1 ROC       0.0348
     79 H30         4.1553    9.9740    8.9116 H           1 ROC       0.0309
     80 H31         3.7303   10.8065   11.1697 H           1 ROC       0.0268
     81 H32         2.0802   10.1915   11.1461 H           1 ROC       0.0268
     82 H33         3.2050   12.3880    9.3471 H           1 ROC       0.0265
     83 H34         2.0381   12.5810   10.6623 H           1 ROC       0.0265
     84 H35         0.9316   12.5706    8.4034 H           1 ROC       0.0265
     85 H36         0.3511   11.2675    9.4420 H           1 ROC       0.0265
     86 H37         2.3857   11.0512    7.1633 H           1 ROC       0.0270
     87 H38         0.7566   10.3917    7.1713 H           1 ROC       0.0270
     88 H39         2.6473    8.7257    7.5496 H           1 ROC       0.0355
     89 H40         0.4935    8.8503    9.7168 H           1 ROC       0.0818
     90 H41         0.4018    8.1108    8.1189 H           1 ROC       0.0818
     91 H42         4.0182    7.3075   12.6607 H           1 ROC       0.1859
     92 H43         2.4391    9.5716   15.5900 H           1 ROC       0.0254
     93 H44         1.4756    9.5014   14.1128 H           1 ROC       0.0254
     94 H45         3.1730    9.9998   14.0317 H           1 ROC       0.0254
     95 H46         4.2162    7.8172   16.0911 H           1 ROC       0.0254
     96 H47         5.0454    8.2885   14.6017 H           1 ROC       0.0254
     97 H48         4.6343    6.5928   14.8849 H           1 ROC       0.0254
     98 H49         1.7816    6.9966   16.0084 H           1 ROC       0.0254
     99 H50         2.1857    5.8115   14.7551 H           1 ROC       0.0254
    100 H51         0.8875    6.9798   14.4878 H           1 ROC       0.0254
@<TRIPOS>BOND
     1     1     2   2
     2     1     4   1
     3    13     1  am
     4     4     3  ar
     5     3    12  ar
     6     4     5  ar
     7     5     6  ar
     8     6    11  ar
     9     7     8  ar
    10    11     7  ar
    11     9     8  ar
    12    10     9  ar
    13    12    10  ar
    14    12    11  ar
    15    14    13   1
    16    15    14   1
    17    14    17   1
    18    15    16   2
    19    24    15  am
    20    17    18   1
    21    18    19   2
    22    18    20  am
    23    21    22   1
    24    23    21   1
    25    21    33   1
    26    23    24   1
    27    23    25   1
    28    25    26   1
    29    26    27  ar
    30    26    28  ar
    31    27    29  ar
    32    28    30  ar
    33    29    31  ar
    34    30    31  ar
    35    33    32   1
    36    32    34   1
    37    32    44   1
    38    34    35   1
    39    34    37   1
    40    35    36   2
    41    35    45  am
    42    37    38   1
    43    38    39   1
    44    38    43   1
    45    39    40   1
    46    40    41   1
    47    41    42   1
    48    42    43   1
    49    43    44   1
    50    45    46   1
    51    46    47   1
    52    46    48   1
    53    46    49   1
    54     5    50   1
    55     6    51   1
    56     7    52   1
    57     8    53   1
    58     9    54   1
    59    10    55   1
    60    13    56   1
    61    14    57   1
    62    17    58   1
    63    17    59   1
    64    20    60   1
    65    20    61   1
    66    21    62   1
    67    22    63   1
    68    23    64   1
    69    24    65   1
    70    25    66   1
    71    25    67   1
    72    27    68   1
    73    28    69   1
    74    29    70   1
    75    30    71   1
    76    31    72   1
    77    32    73   1
    78    33    74   1
    79    33    75   1
    80    34    76   1
    81    37    77   1
    82    37    78   1
    83    38    79   1
    84    39    80   1
    85    39    81   1
    86    40    82   1
    87    40    83   1
    88    41    84   1
    89    41    85   1
    90    42    86   1
    91    42    87   1
    92    43    88   1
    93    44    89   1
    94    44    90   1
    95    45    91   1
    96    47    92   1
    97    47    93   1
    98    47    94   1
    99    48    95   1
   100    48    96   1
   101    48    97   1
   102    49    98   1
   103    49    99   1
   104    49   100   1
@<TRIPOS>SUBSTRUCTURE
     1  ROC      1

