@<TRIPOS>MOLECULE
3pww_ligand_074
   100   104
SMALL
GAST_HUCK
****
This file was generated by PARSER (from files_GN.cpp)

@<TRIPOS>ATOM
      1 C          -2.5816    3.2560    6.5693 C.2         1 ROC       0.2293
      2 O          -2.9877    3.2723    5.4130 O.2         1 ROC      -0.3762
      3 N1         -2.2986    5.6178    6.4504 N.ar        1 ROC      -0.2737
      4 C2         -2.1109    4.4485    7.1289 C.ar        1 ROC       0.1219
      5 C3         -1.4915    4.5337    8.3966 C.ar        1 ROC      -0.0136
      6 C4         -1.1434    5.7847    8.9399 C.ar        1 ROC      -0.0314
      7 C5         -1.1370    8.2501    8.7484 C.ar        1 ROC      -0.0444
      8 C6         -1.4574    9.4020    8.0035 C.ar        1 ROC      -0.0546
      9 C7         -2.0238    9.2803    6.7201 C.ar        1 ROC      -0.0545
     10 C8         -2.2793    8.0056    6.1780 C.ar        1 ROC      -0.0370
     11 C4A        -1.4108    6.9673    8.2212 C.ar        1 ROC       0.0097
     12 C8A        -1.9872    6.8511    6.9287 C.ar        1 ROC       0.0527
     13 N          -2.6313    2.1145    7.2578 N.am        1 ROC      -0.2600
     14 CA         -3.1653    0.8335    6.8568 C.3         1 ROC       0.1473
     15 C1         -4.3396    0.4609    7.6532 C.2         1 ROC       0.2045
     16 O1         -5.0701   -0.4329    7.2418 O.2         1 ROC      -0.3943
     17 CB         -2.0600   -0.2512    7.0490 C.3         1 ROC       0.0773
     18 CG         -0.9742   -0.2497    6.0957 C.2         1 ROC       0.1780
     19 OD1        -0.9932    0.4211    5.0733 O.2         1 ROC      -0.3970
     20 ND2         0.0891   -0.9985    6.3233 N.am        1 ROC      -0.3007
     21 C9         -6.5066    1.8728    9.8929 C.3         1 ROC       0.1194
     22 O2         -7.3170    1.8825   11.0672 O.3         1 ROC      -0.3840
     23 CA1        -5.5180    0.6653    9.8512 C.3         1 ROC       0.0823
     24 N2         -4.5365    0.9953    8.8500 N.am        1 ROC      -0.2772
     25 CB1        -4.7810    0.2932   11.1954 C.3         1 ROC       0.0066
     26 CG1        -3.3571    0.7250   11.3115 C.ar        1 ROC      -0.0408
     27 CD1        -3.0328    2.0626   11.6308 C.ar        1 ROC      -0.0603
     28 CD2        -2.3018   -0.1763   11.0096 C.ar        1 ROC      -0.0603
     29 CE1        -1.6880    2.4882   11.6560 C.ar        1 ROC      -0.0686
     30 CE2        -0.9614    0.2531   11.0229 C.ar        1 ROC      -0.0686
     31 CZ         -0.6565    1.5857   11.3504 C.ar        1 ROC      -0.0687
     32 N11        -7.6964    3.2289    7.9992 N.4         1 ROC       0.2562
     33 CM         -7.4429    1.8936    8.6351 C.3         1 ROC      -0.0008
     34 C21        -8.9759    3.2802    7.1973 C.3         1 ROC       0.0688
     35 CC         -9.1951    2.2930    6.1245 C.2         1 ROC       0.2251
     36 O3        -10.3497    2.0736    5.7888 O.2         1 ROC      -0.3909
     37 C31        -9.2588    4.7447    6.7151 C.3         1 ROC       0.0113
     38 C3A        -8.0580    5.4495    6.0210 C.3         1 ROC      -0.0261
     39 C41        -7.8379    5.0229    4.5348 C.3         1 ROC      -0.0494
     40 C51        -6.6114    5.7288    3.9036 C.3         1 ROC      -0.0528
     41 C61        -5.3275    5.5170    4.7450 C.3         1 ROC      -0.0526
     42 C71        -5.5433    5.9735    6.2104 C.3         1 ROC      -0.0451
     43 C7A        -6.7722    5.3032    6.8926 C.3         1 ROC       0.0024
     44 C81        -6.5073    3.8214    7.2967 C.3         1 ROC      -0.0266
     45 N3         -8.1977    1.6403    5.5327 N.am        1 ROC      -0.2771
     46 CD         -8.2004    0.6372    4.4929 C.3         1 ROC       0.0448
     47 C11        -8.5070   -0.7425    5.1488 C.3         1 ROC      -0.0396
     48 C22        -6.7599    0.6013    3.9025 C.3         1 ROC      -0.0396
     49 C32        -9.1952    0.9512    3.3264 C.3         1 ROC      -0.0396
     50 H1         -1.2846    3.6954    8.9423 H           1 ROC       0.0729
     51 H2         -0.7163    5.8272    9.8682 H           1 ROC       0.0774
     52 H3         -0.7249    8.3540    9.6779 H           1 ROC       0.0657
     53 H4         -1.2832   10.3277    8.3986 H           1 ROC       0.0652
     54 H5         -2.2596   10.1190    6.1874 H           1 ROC       0.0657
     55 H6         -2.6996    7.9271    5.2495 H           1 ROC       0.0653
     56 H7         -2.2961    2.1511    8.1603 H           1 ROC       0.1882
     57 H8         -3.4741    0.8487    5.8071 H           1 ROC       0.0826
     58 H9         -2.5103   -1.2502    7.0042 H           1 ROC       0.0551
     59 H10        -1.6345   -0.1336    8.0519 H           1 ROC       0.0551
     60 H11         0.8283   -0.9925    5.6992 H           1 ROC       0.1814
     61 H12         0.1471   -1.5278    7.1388 H           1 ROC       0.1814
     62 H13        -5.9177    2.7943    9.9480 H           1 ROC       0.0672
     63 H14        -7.4725    2.8334   11.2321 H           1 ROC       0.2101
     64 H15        -6.0932   -0.2154    9.5628 H           1 ROC       0.0606
     65 H16        -3.9427    1.7130    9.0953 H           1 ROC       0.1857
     66 H17        -4.8219   -0.7961   11.2957 H           1 ROC       0.0449
     67 H18        -5.3339    0.6786   12.0553 H           1 ROC       0.0449
     68 H19        -3.7708    2.7370   11.8422 H           1 ROC       0.0557
     69 H20        -2.5032   -1.1463   10.7569 H           1 ROC       0.0557
     70 H21        -1.4660    3.4590   11.8785 H           1 ROC       0.0599
     71 H22        -0.2142   -0.4028   10.7929 H           1 ROC       0.0599
     72 H23         0.3188    1.8972   11.3642 H           1 ROC       0.0559
     73 H24        -7.8464    3.8626    8.7906 H           1 ROC       0.2057
     74 H25        -8.3972    1.4494    8.9438 H           1 ROC       0.0841
     75 H26        -7.0560    1.2177    7.8696 H           1 ROC       0.0841
     76 H27        -9.7677    3.0757    7.9289 H           1 ROC       0.1100
     77 H28        -9.5107    5.3320    7.6040 H           1 ROC       0.0348
     78 H29       -10.1381    4.7791    6.0663 H           1 ROC       0.0348
     79 H30        -8.3057    6.5170    5.9886 H           1 ROC       0.0309
     80 H31        -8.7260    5.2755    3.9492 H           1 ROC       0.0268
     81 H32        -7.6896    3.9466    4.4565 H           1 ROC       0.0268
     82 H33        -6.8162    6.8004    3.8205 H           1 ROC       0.0265
     83 H34        -6.4463    5.3428    2.8904 H           1 ROC       0.0265
     84 H35        -4.5072    6.0871    4.3032 H           1 ROC       0.0265
     85 H36        -5.0511    4.4626    4.7192 H           1 ROC       0.0265
     86 H37        -5.6724    7.0599    6.2213 H           1 ROC       0.0270
     87 H38        -4.6531    5.7579    6.7987 H           1 ROC       0.0270
     88 H39        -6.9409    5.8511    7.8275 H           1 ROC       0.0355
     89 H40        -6.2313    3.2373    6.4181 H           1 ROC       0.0818
     90 H41        -5.6411    3.8115    7.9595 H           1 ROC       0.0818
     91 H42        -7.3153    1.8339    5.8861 H           1 ROC       0.1859
     92 H43        -8.4480   -1.5426    4.4079 H           1 ROC       0.0254
     93 H44        -9.5044   -0.7506    5.5878 H           1 ROC       0.0254
     94 H45        -7.7848   -0.9554    5.9406 H           1 ROC       0.0254
     95 H46        -6.6703   -0.1672    3.1333 H           1 ROC       0.0254
     96 H47        -6.0202    0.3850    4.6800 H           1 ROC       0.0254
     97 H48        -6.5025    1.5642    3.4530 H           1 ROC       0.0254
     98 H49        -9.0315    0.2760    2.4852 H           1 ROC       0.0254
     99 H50        -9.0598    1.9758    2.9792 H           1 ROC       0.0254
    100 H51       -10.2300    0.8268    3.6431 H           1 ROC       0.0254
@<TRIPOS>BOND
     1     1     2   2
     2     1     4   1
     3    13     1  am
     4     4     3  ar
     5     3    12  ar
     6     4     5  ar
     7     5     6  ar
     8     6    11  ar
     9     7     8  ar
    10    11     7  ar
    11     9     8  ar
    12    10     9  ar
    13    12    10  ar
    14    12    11  ar
    15    14    13   1
    16    15    14   1
    17    14    17   1
    18    15    16   2
    19    24    15  am
    20    17    18   1
    21    18    19   2
    22    18    20  am
    23    21    22   1
    24    23    21   1
    25    21    33   1
    26    23    24   1
    27    23    25   1
    28    25    26   1
    29    26    27  ar
    30    26    28  ar
    31    27    29  ar
    32    28    30  ar
    33    29    31  ar
    34    30    31  ar
    35    33    32   1
    36    32    34   1
    37    32    44   1
    38    34    35   1
    39    34    37   1
    40    35    36   2
    41    35    45  am
    42    37    38   1
    43    38    39   1
    44    38    43   1
    45    39    40   1
    46    40    41   1
    47    41    42   1
    48    42    43   1
    49    43    44   1
    50    45    46   1
    51    46    47   1
    52    46    48   1
    53    46    49   1
    54     5    50   1
    55     6    51   1
    56     7    52   1
    57     8    53   1
    58     9    54   1
    59    10    55   1
    60    13    56   1
    61    14    57   1
    62    17    58   1
    63    17    59   1
    64    20    60   1
    65    20    61   1
    66    21    62   1
    67    22    63   1
    68    23    64   1
    69    24    65   1
    70    25    66   1
    71    25    67   1
    72    27    68   1
    73    28    69   1
    74    29    70   1
    75    30    71   1
    76    31    72   1
    77    32    73   1
    78    33    74   1
    79    33    75   1
    80    34    76   1
    81    37    77   1
    82    37    78   1
    83    38    79   1
    84    39    80   1
    85    39    81   1
    86    40    82   1
    87    40    83   1
    88    41    84   1
    89    41    85   1
    90    42    86   1
    91    42    87   1
    92    43    88   1
    93    44    89   1
    94    44    90   1
    95    45    91   1
    96    47    92   1
    97    47    93   1
    98    47    94   1
    99    48    95   1
   100    48    96   1
   101    48    97   1
   102    49    98   1
   103    49    99   1
   104    49   100   1
@<TRIPOS>SUBSTRUCTURE
     1  ROC      1

