@<TRIPOS>MOLECULE
3pww_ligand_005
   100   104
SMALL
GAST_HUCK
****
This file was generated by PARSER (from files_GN.cpp)

@<TRIPOS>ATOM
      1 C          -2.9749   -0.9892   10.3584 C.2         1 ROC       0.2293
      2 O          -1.8416   -0.9057   10.8250 O.2         1 ROC      -0.3762
      3 N1         -3.5708   -2.2633   12.2661 N.ar        1 ROC      -0.2737
      4 C2         -3.9357   -1.6989   11.0789 C.ar        1 ROC       0.1219
      5 C3         -5.2737   -1.8929   10.6533 C.ar        1 ROC      -0.0136
      6 C4         -6.1745   -2.6210   11.4538 C.ar        1 ROC      -0.0314
      7 C5         -6.6082   -3.9205   13.5144 C.ar        1 ROC      -0.0444
      8 C6         -6.1205   -4.4747   14.7139 C.ar        1 ROC      -0.0546
      9 C7         -4.7739   -4.2894   15.0840 C.ar        1 ROC      -0.0545
     10 C8         -3.9134   -3.5376   14.2644 C.ar        1 ROC      -0.0370
     11 C4A        -5.7476   -3.1800   12.6760 C.ar        1 ROC       0.0097
     12 C8A        -4.3966   -2.9847   13.0641 C.ar        1 ROC       0.0527
     13 N          -3.2381   -0.4148    9.1862 N.am        1 ROC      -0.2600
     14 CA         -2.3178    0.2584    8.3090 C.3         1 ROC       0.1473
     15 C1         -2.7311    1.6586    8.2515 C.2         1 ROC       0.2045
     16 O1         -3.4567    2.0476    7.3426 O.2         1 ROC      -0.3943
     17 CB         -2.3088   -0.5248    6.9532 C.3         1 ROC       0.0773
     18 CG         -1.1530   -0.2395    6.1261 C.2         1 ROC       0.1780
     19 OD1        -1.2360    0.5169    5.1673 O.2         1 ROC      -0.3970
     20 ND2         0.0130   -0.7935    6.3904 N.am        1 ROC      -0.3007
     21 C9         -2.0465    4.8866    9.7061 C.3         1 ROC       0.1194
     22 O2         -2.6826    6.0340   10.2644 O.3         1 ROC      -0.3840
     23 CA1        -3.0878    3.7127    9.6074 C.3         1 ROC       0.0823
     24 N2         -2.4664    2.4507    9.2900 N.am        1 ROC      -0.2772
     25 CB1        -3.8810    3.5281   10.9450 C.3         1 ROC       0.0066
     26 CG1        -4.9476    2.4841   11.0258 C.ar        1 ROC      -0.0408
     27 CD1        -5.1792    1.8216   12.2557 C.ar        1 ROC      -0.0603
     28 CD2        -5.8586    2.2479    9.9630 C.ar        1 ROC      -0.0603
     29 CE1        -6.2850    0.9699   12.4313 C.ar        1 ROC      -0.0686
     30 CE2        -6.9510    1.3760   10.1285 C.ar        1 ROC      -0.0686
     31 CZ         -7.1741    0.7487   11.3646 C.ar        1 ROC      -0.0687
     32 N11        -0.8140    6.6655    8.1388 N.4         1 ROC       0.2562
     33 CM         -1.3851    5.2840    8.3455 C.3         1 ROC      -0.0008
     34 C21         0.4957    7.0118    8.8116 C.3         1 ROC       0.0688
     35 CC          0.5512    7.1992   10.2634 C.2         1 ROC       0.2251
     36 O3         -0.4893    7.1999   10.9171 O.2         1 ROC      -0.3909
     37 C31         1.1178    8.2282    8.0418 C.3         1 ROC       0.0113
     38 C3A         0.1609    9.4439    7.8335 C.3         1 ROC      -0.0261
     39 C41        -0.0494   10.3230    9.1064 C.3         1 ROC      -0.0494
     40 C51        -1.0000   11.5183    8.8289 C.3         1 ROC      -0.0528
     41 C61        -2.3560   11.0584    8.2332 C.3         1 ROC      -0.0526
     42 C71        -2.1709   10.1523    6.9891 C.3         1 ROC      -0.0451
     43 C7A        -1.1930    8.9597    7.2213 C.3         1 ROC       0.0024
     44 C81        -1.7972    7.7935    8.0601 C.3         1 ROC      -0.0266
     45 N3          1.7416    7.2933   10.8560 N.am        1 ROC      -0.2771
     46 CD          2.1213    7.5176   12.2378 C.3         1 ROC       0.0448
     47 C11         2.6499    6.1543   12.7739 C.3         1 ROC      -0.0396
     48 C22         1.0052    8.0479   13.1994 C.3         1 ROC      -0.0396
     49 C32         3.2817    8.5590   12.2185 C.3         1 ROC      -0.0396
     50 H1         -5.6113   -1.5073    9.7695 H           1 ROC       0.0729
     51 H2         -7.1397   -2.7381   11.1388 H           1 ROC       0.0774
     52 H3         -7.5874   -4.0675   13.2582 H           1 ROC       0.0657
     53 H4         -6.7442   -5.0208   15.3120 H           1 ROC       0.0652
     54 H5         -4.4148   -4.7021   15.9469 H           1 ROC       0.0657
     55 H6         -2.9365   -3.4053   14.5419 H           1 ROC       0.0653
     56 H7         -4.1489   -0.4835    8.8596 H           1 ROC       0.1882
     57 H8         -1.2986    0.2268    8.7099 H           1 ROC       0.0826
     58 H9         -3.2275   -0.3259    6.3921 H           1 ROC       0.0551
     59 H10        -2.3057   -1.5989    7.1573 H           1 ROC       0.0551
     60 H11         0.7859   -0.5952    5.8350 H           1 ROC       0.1814
     61 H12         0.1024   -1.4133    7.1380 H           1 ROC       0.1814
     62 H13        -1.2524    4.6042   10.4039 H           1 ROC       0.0672
     63 H14        -3.4440    6.2432    9.6608 H           1 ROC       0.2101
     64 H15        -3.8040    4.0089    8.8402 H           1 ROC       0.0606
     65 H16        -1.8803    2.0830    9.9742 H           1 ROC       0.1857
     66 H17        -4.3893    4.4647   11.1835 H           1 ROC       0.0449
     67 H18        -3.1430    3.3615   11.7388 H           1 ROC       0.0449
     68 H19        -4.5658    1.9940   13.0541 H           1 ROC       0.0557
     69 H20        -5.7513    2.7265    9.0687 H           1 ROC       0.0557
     70 H21        -6.4505    0.5228   13.3352 H           1 ROC       0.0599
     71 H22        -7.5961    1.2108    9.3513 H           1 ROC       0.0599
     72 H23        -7.9808    0.1324   11.4908 H           1 ROC       0.0559
     73 H24        -0.5227    6.5995    7.1675 H           1 ROC       0.2057
     74 H25        -2.1226    5.1338    7.5514 H           1 ROC       0.0841
     75 H26        -0.5892    4.5596    8.1404 H           1 ROC       0.0841
     76 H27         1.1588    6.1633    8.6159 H           1 ROC       0.1100
     77 H28         1.3890    7.8714    7.0444 H           1 ROC       0.0348
     78 H29         2.0472    8.5681    8.5087 H           1 ROC       0.0348
     79 H30         0.6430   10.0938    7.0951 H           1 ROC       0.0309
     80 H31         0.9139   10.7129    9.4462 H           1 ROC       0.0268
     81 H32        -0.4705    9.7316    9.9194 H           1 ROC       0.0268
     82 H33        -0.5181   12.2111    8.1317 H           1 ROC       0.0265
     83 H34        -1.1840   12.0601    9.7623 H           1 ROC       0.0265
     84 H35        -2.9405   11.9399    7.9500 H           1 ROC       0.0265
     85 H36        -2.9218   10.5196    8.9949 H           1 ROC       0.0265
     86 H37        -1.7807   10.7712    6.1751 H           1 ROC       0.0270
     87 H38        -3.1468    9.7756    6.6702 H           1 ROC       0.0270
     88 H39        -0.9783    8.5497    6.2272 H           1 ROC       0.0355
     89 H40        -2.0643    8.1451    9.0544 H           1 ROC       0.0818
     90 H41        -2.7145    7.4585    7.5673 H           1 ROC       0.0818
     91 H42         2.4942    7.1571   10.2560 H           1 ROC       0.1859
     92 H43         3.0296    6.2632   13.7937 H           1 ROC       0.0254
     93 H44         3.4571    5.7763   12.1429 H           1 ROC       0.0254
     94 H45         1.8493    5.4108   12.7786 H           1 ROC       0.0254
     95 H46         1.4237    8.2923   14.1784 H           1 ROC       0.0254
     96 H47         0.2248    7.2987   13.3527 H           1 ROC       0.0254
     97 H48         0.5486    8.9510   12.7869 H           1 ROC       0.0254
     98 H49         3.6875    8.7038   13.2224 H           1 ROC       0.0254
     99 H50         2.9288    9.5244   11.8508 H           1 ROC       0.0254
    100 H51         4.0960    8.2273   11.5723 H           1 ROC       0.0254
@<TRIPOS>BOND
     1     1     2   2
     2     1     4   1
     3    13     1  am
     4     4     3  ar
     5     3    12  ar
     6     4     5  ar
     7     5     6  ar
     8     6    11  ar
     9     7     8  ar
    10    11     7  ar
    11     9     8  ar
    12    10     9  ar
    13    12    10  ar
    14    12    11  ar
    15    14    13   1
    16    15    14   1
    17    14    17   1
    18    15    16   2
    19    24    15  am
    20    17    18   1
    21    18    19   2
    22    18    20  am
    23    21    22   1
    24    23    21   1
    25    21    33   1
    26    23    24   1
    27    23    25   1
    28    25    26   1
    29    26    27  ar
    30    26    28  ar
    31    27    29  ar
    32    28    30  ar
    33    29    31  ar
    34    30    31  ar
    35    33    32   1
    36    32    34   1
    37    32    44   1
    38    34    35   1
    39    34    37   1
    40    35    36   2
    41    35    45  am
    42    37    38   1
    43    38    39   1
    44    38    43   1
    45    39    40   1
    46    40    41   1
    47    41    42   1
    48    42    43   1
    49    43    44   1
    50    45    46   1
    51    46    47   1
    52    46    48   1
    53    46    49   1
    54     5    50   1
    55     6    51   1
    56     7    52   1
    57     8    53   1
    58     9    54   1
    59    10    55   1
    60    13    56   1
    61    14    57   1
    62    17    58   1
    63    17    59   1
    64    20    60   1
    65    20    61   1
    66    21    62   1
    67    22    63   1
    68    23    64   1
    69    24    65   1
    70    25    66   1
    71    25    67   1
    72    27    68   1
    73    28    69   1
    74    29    70   1
    75    30    71   1
    76    31    72   1
    77    32    73   1
    78    33    74   1
    79    33    75   1
    80    34    76   1
    81    37    77   1
    82    37    78   1
    83    38    79   1
    84    39    80   1
    85    39    81   1
    86    40    82   1
    87    40    83   1
    88    41    84   1
    89    41    85   1
    90    42    86   1
    91    42    87   1
    92    43    88   1
    93    44    89   1
    94    44    90   1
    95    45    91   1
    96    47    92   1
    97    47    93   1
    98    47    94   1
    99    48    95   1
   100    48    96   1
   101    48    97   1
   102    49    98   1
   103    49    99   1
   104    49   100   1
@<TRIPOS>SUBSTRUCTURE
     1  ROC      1

