@<TRIPOS>MOLECULE
3pww_ligand_021
   100   104
SMALL
GAST_HUCK
****
This file was generated by PARSER (from files_GN.cpp)

@<TRIPOS>ATOM
      1 C          -3.2697   -0.8537   10.2596 C.2         1 ROC       0.2293
      2 O          -2.1346   -0.6726   10.6892 O.2         1 ROC      -0.3762
      3 N1         -3.7329   -2.1710   12.1834 N.ar        1 ROC      -0.2737
      4 C2         -4.1699   -1.5991   11.0243 C.ar        1 ROC       0.1219
      5 C3         -5.5271   -1.8013   10.6678 C.ar        1 ROC      -0.0136
      6 C4         -6.3679   -2.5684   11.4921 C.ar        1 ROC      -0.0314
      7 C5         -6.6762   -3.9227   13.5312 C.ar        1 ROC      -0.0444
      8 C6         -6.1319   -4.4726   14.7061 C.ar        1 ROC      -0.0546
      9 C7         -4.7811   -4.2492   15.0351 C.ar        1 ROC      -0.0545
     10 C8         -3.9684   -3.4690   14.1913 C.ar        1 ROC      -0.0370
     11 C4A        -5.8676   -3.1436   12.6752 C.ar        1 ROC       0.0097
     12 C8A        -4.5061   -2.9201   13.0106 C.ar        1 ROC       0.0527
     13 N          -3.6058   -0.3625    9.0695 N.am        1 ROC      -0.2600
     14 CA         -2.8011    0.4037    8.1522 C.3         1 ROC       0.1473
     15 C1         -3.4920    1.6656    7.8940 C.2         1 ROC       0.2045
     16 O1         -4.6920    1.6501    7.6476 O.2         1 ROC      -0.3943
     17 CB         -2.5703   -0.4435    6.8621 C.3         1 ROC       0.0773
     18 CG         -1.3360   -0.1156    6.1682 C.2         1 ROC       0.1780
     19 OD1        -1.3341    0.7022    5.2591 O.2         1 ROC      -0.3970
     20 ND2        -0.1952   -0.6802    6.5124 N.am        1 ROC      -0.3007
     21 C9         -3.2722    4.8434    6.5856 C.3         1 ROC       0.1194
     22 O2         -3.3109    6.2675    6.6959 O.3         1 ROC      -0.3840
     23 CA1        -3.3765    4.1452    7.9872 C.3         1 ROC       0.0823
     24 N2         -2.8319    2.8135    7.9336 N.am        1 ROC      -0.2772
     25 CB1        -2.7247    4.9210    9.1853 C.3         1 ROC       0.0066
     26 CG1        -1.2373    5.0688    9.1864 C.ar        1 ROC      -0.0408
     27 CD1        -0.6231    6.3294    8.9865 C.ar        1 ROC      -0.0603
     28 CD2        -0.4045    3.9614    9.4813 C.ar        1 ROC      -0.0603
     29 CE1         0.7768    6.4696    9.0421 C.ar        1 ROC      -0.0686
     30 CE2         0.9952    4.0964    9.5207 C.ar        1 ROC      -0.0686
     31 CZ          1.5874    5.3492    9.2930 C.ar        1 ROC      -0.0687
     32 N11        -5.6182    5.2131    5.4614 N.4         1 ROC       0.2562
     33 CM         -4.3412    4.3986    5.5239 C.3         1 ROC      -0.0008
     34 C21        -6.6149    5.0120    6.5833 C.3         1 ROC       0.0688
     35 CC         -7.1810    3.6696    6.7856 C.2         1 ROC       0.2251
     36 O3         -7.1391    2.8399    5.8882 O.2         1 ROC      -0.3909
     37 C31        -7.7170    6.1209    6.5103 C.3         1 ROC       0.0113
     38 C3A        -8.3944    6.2948    5.1174 C.3         1 ROC      -0.0261
     39 C41        -9.4992    5.2346    4.8245 C.3         1 ROC      -0.0494
     40 C51       -10.1460    5.4480    3.4332 C.3         1 ROC      -0.0528
     41 C61        -9.0809    5.4478    2.3086 C.3         1 ROC      -0.0526
     42 C71        -7.9693    6.4954    2.5740 C.3         1 ROC      -0.0451
     43 C7A        -7.3159    6.3806    3.9884 C.3         1 ROC       0.0024
     44 C81        -6.2635    5.2358    4.1002 C.3         1 ROC      -0.0266
     45 N3         -7.7577    3.3769    7.9508 N.am        1 ROC      -0.2771
     46 CD         -8.5394    2.2196    8.3403 C.3         1 ROC       0.0448
     47 C11        -7.7774    0.8656    8.1808 C.3         1 ROC      -0.0396
     48 C22        -9.8696    2.1882    7.5275 C.3         1 ROC      -0.0396
     49 C32        -8.8734    2.4025    9.8555 C.3         1 ROC      -0.0396
     50 H1         -5.9255   -1.3962    9.8195 H           1 ROC       0.0729
     51 H2         -7.3452   -2.6985   11.2212 H           1 ROC       0.0774
     52 H3         -7.6588   -4.0959   13.3037 H           1 ROC       0.0657
     53 H4         -6.7206   -5.0443   15.3165 H           1 ROC       0.0652
     54 H5         -4.3856   -4.6562   15.8855 H           1 ROC       0.0657
     55 H6         -2.9889   -3.3104   14.4397 H           1 ROC       0.0653
     56 H7         -4.5031   -0.5570    8.7580 H           1 ROC       0.1882
     57 H8         -1.8246    0.6133    8.6053 H           1 ROC       0.0826
     58 H9         -3.4200   -0.3428    6.1761 H           1 ROC       0.0551
     59 H10        -2.5215   -1.5012    7.1391 H           1 ROC       0.0551
     60 H11         0.6234   -0.4616    6.0307 H           1 ROC       0.1814
     61 H12        -0.1665   -1.3309    7.2395 H           1 ROC       0.1814
     62 H13        -2.2780    4.6058    6.1886 H           1 ROC       0.0672
     63 H14        -3.0961    6.6017    5.7976 H           1 ROC       0.2101
     64 H15        -4.4320    4.0777    8.2504 H           1 ROC       0.0606
     65 H16        -1.8703    2.7465    7.9802 H           1 ROC       0.1857
     66 H17        -3.0012    4.4191   10.1170 H           1 ROC       0.0449
     67 H18        -3.1973    5.9070    9.2468 H           1 ROC       0.0449
     68 H19        -1.1949    7.1607    8.8151 H           1 ROC       0.0557
     69 H20        -0.8119    3.0466    9.6920 H           1 ROC       0.0557
     70 H21         1.2047    7.3857    8.8965 H           1 ROC       0.0599
     71 H22         1.5789    3.2838    9.7206 H           1 ROC       0.0599
     72 H23         2.6037    5.4458    9.3251 H           1 ROC       0.0559
     73 H24        -5.2989    6.1756    5.5838 H           1 ROC       0.2057
     74 H25        -4.5659    3.3371    5.6369 H           1 ROC       0.0841
     75 H26        -3.8321    4.4877    4.5595 H           1 ROC       0.0841
     76 H27        -6.0772    5.2490    7.5015 H           1 ROC       0.1100
     77 H28        -7.2370    7.0745    6.7563 H           1 ROC       0.0348
     78 H29        -8.4823    5.9612    7.2757 H           1 ROC       0.0348
     79 H30        -8.9095    7.2624    5.1472 H           1 ROC       0.0309
     80 H31       -10.2788    5.2970    5.5892 H           1 ROC       0.0268
     81 H32        -9.0822    4.2286    4.8560 H           1 ROC       0.0268
     82 H33       -10.6876    6.3981    3.4241 H           1 ROC       0.0265
     83 H34       -10.8692    4.6494    3.2467 H           1 ROC       0.0265
     84 H35        -9.5685    5.6744    1.3572 H           1 ROC       0.0265
     85 H36        -8.6375    4.4524    2.2254 H           1 ROC       0.0265
     86 H37        -8.4121    7.4908    2.4756 H           1 ROC       0.0270
     87 H38        -7.2040    6.4083    1.7996 H           1 ROC       0.0270
     88 H39        -6.7592    7.3127    4.1435 H           1 ROC       0.0355
     89 H40        -6.7162    4.2718    3.8629 H           1 ROC       0.0818
     90 H41        -5.5034    5.4314    3.3375 H           1 ROC       0.0818
     91 H42        -7.6882    4.0692    8.6263 H           1 ROC       0.1859
     92 H43        -8.3980    0.0350    8.5295 H           1 ROC       0.0254
     93 H44        -6.8605    0.8722    8.7734 H           1 ROC       0.0254
     94 H45        -7.5209    0.6648    7.1392 H           1 ROC       0.0254
     95 H46       -10.5198    1.3819    7.8767 H           1 ROC       0.0254
     96 H47        -9.6698    2.0245    6.4680 H           1 ROC       0.0254
     97 H48       -10.4063    3.1342    7.6338 H           1 ROC       0.0254
     98 H49        -9.4870    1.5768   10.2275 H           1 ROC       0.0254
     99 H50        -9.4178    3.3341   10.0252 H           1 ROC       0.0254
    100 H51        -7.9551    2.4340   10.4482 H           1 ROC       0.0254
@<TRIPOS>BOND
     1     1     2   2
     2     1     4   1
     3    13     1  am
     4     4     3  ar
     5     3    12  ar
     6     4     5  ar
     7     5     6  ar
     8     6    11  ar
     9     7     8  ar
    10    11     7  ar
    11     9     8  ar
    12    10     9  ar
    13    12    10  ar
    14    12    11  ar
    15    14    13   1
    16    15    14   1
    17    14    17   1
    18    15    16   2
    19    24    15  am
    20    17    18   1
    21    18    19   2
    22    18    20  am
    23    21    22   1
    24    23    21   1
    25    21    33   1
    26    23    24   1
    27    23    25   1
    28    25    26   1
    29    26    27  ar
    30    26    28  ar
    31    27    29  ar
    32    28    30  ar
    33    29    31  ar
    34    30    31  ar
    35    33    32   1
    36    32    34   1
    37    32    44   1
    38    34    35   1
    39    34    37   1
    40    35    36   2
    41    35    45  am
    42    37    38   1
    43    38    39   1
    44    38    43   1
    45    39    40   1
    46    40    41   1
    47    41    42   1
    48    42    43   1
    49    43    44   1
    50    45    46   1
    51    46    47   1
    52    46    48   1
    53    46    49   1
    54     5    50   1
    55     6    51   1
    56     7    52   1
    57     8    53   1
    58     9    54   1
    59    10    55   1
    60    13    56   1
    61    14    57   1
    62    17    58   1
    63    17    59   1
    64    20    60   1
    65    20    61   1
    66    21    62   1
    67    22    63   1
    68    23    64   1
    69    24    65   1
    70    25    66   1
    71    25    67   1
    72    27    68   1
    73    28    69   1
    74    29    70   1
    75    30    71   1
    76    31    72   1
    77    32    73   1
    78    33    74   1
    79    33    75   1
    80    34    76   1
    81    37    77   1
    82    37    78   1
    83    38    79   1
    84    39    80   1
    85    39    81   1
    86    40    82   1
    87    40    83   1
    88    41    84   1
    89    41    85   1
    90    42    86   1
    91    42    87   1
    92    43    88   1
    93    44    89   1
    94    44    90   1
    95    45    91   1
    96    47    92   1
    97    47    93   1
    98    47    94   1
    99    48    95   1
   100    48    96   1
   101    48    97   1
   102    49    98   1
   103    49    99   1
   104    49   100   1
@<TRIPOS>SUBSTRUCTURE
     1  ROC      1

