@<TRIPOS>MOLECULE
3pww_ligand_020
   100   104
SMALL
GAST_HUCK
****
This file was generated by PARSER (from files_GN.cpp)

@<TRIPOS>ATOM
      1 C          -5.3818   -1.8389    6.6623 C.2         1 ROC       0.2293
      2 O          -5.2188   -2.9423    7.1712 O.2         1 ROC      -0.3762
      3 N1         -7.4353   -2.6455    5.7772 N.ar        1 ROC      -0.2737
      4 C2         -6.5181   -1.6371    5.8762 C.ar        1 ROC       0.1219
      5 C3         -6.7915   -0.4403    5.1716 C.ar        1 ROC      -0.0136
      6 C4         -7.9726   -0.3206    4.4184 C.ar        1 ROC      -0.0314
      7 C5        -10.1199   -1.2842    3.6612 C.ar        1 ROC      -0.0444
      8 C6        -11.0045   -2.3793    3.6324 C.ar        1 ROC      -0.0546
      9 C7        -10.6764   -3.5722    4.3008 C.ar        1 ROC      -0.0545
     10 C8         -9.4725   -3.6701    5.0232 C.ar        1 ROC      -0.0370
     11 C4A        -8.9055   -1.3770    4.3743 C.ar        1 ROC       0.0097
     12 C8A        -8.5886   -2.5719    5.0686 C.ar        1 ROC       0.0527
     13 N          -4.4836   -0.8806    6.8983 N.am        1 ROC      -0.2600
     14 CA         -3.3503   -0.9771    7.7837 C.3         1 ROC       0.1473
     15 C1         -3.7964   -0.6716    9.1391 C.2         1 ROC       0.2045
     16 O1         -3.9276   -1.5991    9.9284 O.2         1 ROC      -0.3943
     17 CB         -2.1821   -0.0560    7.3066 C.3         1 ROC       0.0773
     18 CG         -1.5662   -0.5124    6.0762 C.2         1 ROC       0.1780
     19 OD1        -1.9087   -0.0444    4.9964 O.2         1 ROC      -0.3970
     20 ND2        -0.6190   -1.4279    6.0926 N.am        1 ROC      -0.3007
     21 C9         -5.7274    1.9552   10.6044 C.3         1 ROC       0.1194
     22 O2         -6.1028    2.5150   11.8652 O.3         1 ROC      -0.3840
     23 CA1        -4.4818    1.0340   10.8040 C.3         1 ROC       0.0823
     24 N2         -4.0662    0.5789    9.4976 N.am        1 ROC      -0.2772
     25 CB1        -3.3096    1.7693   11.5547 C.3         1 ROC       0.0066
     26 CG1        -1.9279    1.3997   11.1352 C.ar        1 ROC      -0.0408
     27 CD1        -1.4532    0.0717   11.2656 C.ar        1 ROC      -0.0603
     28 CD2        -1.0657    2.3650   10.5585 C.ar        1 ROC      -0.0603
     29 CE1        -0.1841   -0.2887   10.7762 C.ar        1 ROC      -0.0686
     30 CE2         0.2098    2.0094   10.0878 C.ar        1 ROC      -0.0686
     31 CZ          0.6483    0.6788   10.1843 C.ar        1 ROC      -0.0687
     32 N11        -7.9297    2.1968    9.3470 N.4         1 ROC       0.2562
     33 CM         -6.9726    1.2335   10.0020 C.3         1 ROC      -0.0008
     34 C21        -9.3914    1.8550    9.5136 C.3         1 ROC       0.0688
     35 CC         -9.8301    0.5249    9.0834 C.2         1 ROC       0.2251
     36 O3         -9.1847   -0.1066    8.2579 O.2         1 ROC      -0.3909
     37 C31       -10.2942    2.9977    8.9433 C.3         1 ROC       0.0113
     38 C3A        -9.8974    3.5111    7.5241 C.3         1 ROC      -0.0261
     39 C41       -10.3806    2.5947    6.3529 C.3         1 ROC      -0.0494
     40 C51        -9.9526    3.1524    4.9684 C.3         1 ROC      -0.0528
     41 C61        -8.4228    3.4069    4.8930 C.3         1 ROC      -0.0526
     42 C71        -7.9335    4.3140    6.0513 C.3         1 ROC      -0.0451
     43 C7A        -8.3607    3.7961    7.4576 C.3         1 ROC       0.0024
     44 C81        -7.5411    2.5664    7.9441 C.3         1 ROC      -0.0266
     45 N3        -10.9019   -0.0049    9.6634 N.am        1 ROC      -0.2771
     46 CD        -11.5103   -1.3019    9.4752 C.3         1 ROC       0.0448
     47 C11       -10.4931   -2.4540    9.7516 C.3         1 ROC      -0.0396
     48 C22       -12.1095   -1.4250    8.0405 C.3         1 ROC      -0.0396
     49 C32       -12.6664   -1.3971   10.5215 C.3         1 ROC      -0.0396
     50 H1         -6.1420    0.3481    5.1907 H           1 ROC       0.0729
     51 H2         -8.1504    0.5413    3.8958 H           1 ROC       0.0774
     52 H3        -10.3679   -0.4272    3.1627 H           1 ROC       0.0657
     53 H4        -11.8874   -2.3084    3.1185 H           1 ROC       0.0652
     54 H5        -11.3171   -4.3688    4.2673 H           1 ROC       0.0657
     55 H6         -9.2432   -4.5386    5.5120 H           1 ROC       0.0653
     56 H7         -4.6292   -0.0180    6.4839 H           1 ROC       0.1882
     57 H8         -2.9640   -2.0017    7.7669 H           1 ROC       0.0826
     58 H9         -1.4113   -0.0117    8.0799 H           1 ROC       0.0551
     59 H10        -2.5511    0.9666    7.1684 H           1 ROC       0.0551
     60 H11        -0.2130   -1.7207    5.2618 H           1 ROC       0.1814
     61 H12        -0.3165   -1.8011    6.9408 H           1 ROC       0.1814
     62 H13        -5.4270    2.7766    9.9504 H           1 ROC       0.0672
     63 H14        -6.3175    3.4610   11.6719 H           1 ROC       0.2101
     64 H15        -4.7939    0.1891   11.4302 H           1 ROC       0.0606
     65 H16        -3.9422    1.2659    8.8312 H           1 ROC       0.1857
     66 H17        -3.4016    1.5640   12.6260 H           1 ROC       0.0449
     67 H18        -3.4424    2.8454   11.4423 H           1 ROC       0.0449
     68 H19        -2.0437   -0.6476   11.6887 H           1 ROC       0.0557
     69 H20        -1.3670    3.3402   10.4652 H           1 ROC       0.0557
     70 H21         0.1412   -1.2571   10.8578 H           1 ROC       0.0599
     71 H22         0.8194    2.7187    9.6672 H           1 ROC       0.0599
     72 H23         1.5628    0.4116    9.8176 H           1 ROC       0.0559
     73 H24        -7.8248    3.0668    9.8728 H           1 ROC       0.2057
     74 H25        -7.4586    0.6986   10.8240 H           1 ROC       0.0841
     75 H26        -6.6688    0.4786    9.2762 H           1 ROC       0.0841
     76 H27        -9.5492    1.8796   10.5970 H           1 ROC       0.1100
     77 H28       -10.2121    3.8456    9.6240 H           1 ROC       0.0348
     78 H29       -11.3456    2.7024    8.9458 H           1 ROC       0.0348
     79 H30       -10.4107    4.4678    7.3877 H           1 ROC       0.0309
     80 H31       -11.4707    2.5233    6.3750 H           1 ROC       0.0268
     81 H32        -9.9828    1.5866    6.4579 H           1 ROC       0.0268
     82 H33       -10.4769    4.0890    4.7764 H           1 ROC       0.0265
     83 H34       -10.2377    2.4425    4.1872 H           1 ROC       0.0265
     84 H35        -8.1835    3.8762    3.9362 H           1 ROC       0.0265
     85 H36        -7.8888    2.4534    4.9324 H           1 ROC       0.0265
     86 H37        -8.3497    5.3098    5.8984 H           1 ROC       0.0270
     87 H38        -6.8482    4.4032    5.9983 H           1 ROC       0.0270
     88 H39        -8.1458    4.6109    8.1566 H           1 ROC       0.0355
     89 H40        -7.6811    1.7208    7.2727 H           1 ROC       0.0818
     90 H41        -6.4853    2.8356    7.9093 H           1 ROC       0.0818
     91 H42       -11.3369    0.5624   10.3265 H           1 ROC       0.1859
     92 H43       -10.9986   -3.4288    9.7401 H           1 ROC       0.0254
     93 H44       -10.0254   -2.3243   10.7287 H           1 ROC       0.0254
     94 H45        -9.7054   -2.4842    8.9966 H           1 ROC       0.0254
     95 H46       -12.6654   -2.3586    7.9360 H           1 ROC       0.0254
     96 H47       -11.3236   -1.4110    7.2842 H           1 ROC       0.0254
     97 H48       -12.7900   -0.5946    7.8427 H           1 ROC       0.0254
     98 H49       -13.1830   -2.3563   10.4421 H           1 ROC       0.0254
     99 H50       -13.3958   -0.6010   10.3614 H           1 ROC       0.0254
    100 H51       -12.2735   -1.3005   11.5350 H           1 ROC       0.0254
@<TRIPOS>BOND
     1     1     2   2
     2     1     4   1
     3    13     1  am
     4     4     3  ar
     5     3    12  ar
     6     4     5  ar
     7     5     6  ar
     8     6    11  ar
     9     7     8  ar
    10    11     7  ar
    11     9     8  ar
    12    10     9  ar
    13    12    10  ar
    14    12    11  ar
    15    14    13   1
    16    15    14   1
    17    14    17   1
    18    15    16   2
    19    24    15  am
    20    17    18   1
    21    18    19   2
    22    18    20  am
    23    21    22   1
    24    23    21   1
    25    21    33   1
    26    23    24   1
    27    23    25   1
    28    25    26   1
    29    26    27  ar
    30    26    28  ar
    31    27    29  ar
    32    28    30  ar
    33    29    31  ar
    34    30    31  ar
    35    33    32   1
    36    32    34   1
    37    32    44   1
    38    34    35   1
    39    34    37   1
    40    35    36   2
    41    35    45  am
    42    37    38   1
    43    38    39   1
    44    38    43   1
    45    39    40   1
    46    40    41   1
    47    41    42   1
    48    42    43   1
    49    43    44   1
    50    45    46   1
    51    46    47   1
    52    46    48   1
    53    46    49   1
    54     5    50   1
    55     6    51   1
    56     7    52   1
    57     8    53   1
    58     9    54   1
    59    10    55   1
    60    13    56   1
    61    14    57   1
    62    17    58   1
    63    17    59   1
    64    20    60   1
    65    20    61   1
    66    21    62   1
    67    22    63   1
    68    23    64   1
    69    24    65   1
    70    25    66   1
    71    25    67   1
    72    27    68   1
    73    28    69   1
    74    29    70   1
    75    30    71   1
    76    31    72   1
    77    32    73   1
    78    33    74   1
    79    33    75   1
    80    34    76   1
    81    37    77   1
    82    37    78   1
    83    38    79   1
    84    39    80   1
    85    39    81   1
    86    40    82   1
    87    40    83   1
    88    41    84   1
    89    41    85   1
    90    42    86   1
    91    42    87   1
    92    43    88   1
    93    44    89   1
    94    44    90   1
    95    45    91   1
    96    47    92   1
    97    47    93   1
    98    47    94   1
    99    48    95   1
   100    48    96   1
   101    48    97   1
   102    49    98   1
   103    49    99   1
   104    49   100   1
@<TRIPOS>SUBSTRUCTURE
     1  ROC      1

