@<TRIPOS>MOLECULE
3pww_ligand_027
   100   104
SMALL
GAST_HUCK
****
This file was generated by PARSER (from files_GN.cpp)

@<TRIPOS>ATOM
      1 C          -1.0792    3.5803   10.7482 C.2         1 ROC       0.2293
      2 O          -2.1168    4.0251   11.2258 O.2         1 ROC      -0.3762
      3 N1         -0.0545    5.6702   11.1910 N.ar        1 ROC      -0.2737
      4 C2          0.0141    4.4386   10.6104 C.ar        1 ROC       0.1219
      5 C3          1.1920    4.1241    9.8830 C.ar        1 ROC      -0.0136
      6 C4          2.2361    5.0621    9.7915 C.ar        1 ROC      -0.0314
      7 C5          3.1342    7.3007   10.3428 C.ar        1 ROC      -0.0444
      8 C6          2.9701    8.5370   11.0001 C.ar        1 ROC      -0.0546
      9 C7          1.7929    8.8008   11.7247 C.ar        1 ROC      -0.0545
     10 C8          0.7706    7.8382   11.7880 C.ar        1 ROC      -0.0370
     11 C4A         2.1174    6.3218   10.4107 C.ar        1 ROC       0.0097
     12 C8A         0.9273    6.6036   11.1309 C.ar        1 ROC       0.0527
     13 N          -1.0457    2.3191   10.3255 N.am        1 ROC      -0.2600
     14 CA         -2.1105    1.3535   10.2391 C.3         1 ROC       0.1473
     15 C1         -3.1899    1.8368    9.3790 C.2         1 ROC       0.2045
     16 O1         -4.1899    2.3470    9.8711 O.2         1 ROC      -0.3943
     17 CB         -2.4924    0.6829   11.6059 C.3         1 ROC       0.0773
     18 CG         -3.6557    1.2049   12.2965 C.2         1 ROC       0.1780
     19 OD1        -4.6999    0.5739   12.3276 O.2         1 ROC      -0.3970
     20 ND2        -3.6302    2.3765   12.8946 N.am        1 ROC      -0.3007
     21 C9         -3.7794    3.9479    6.9168 C.3         1 ROC       0.1194
     22 O2         -2.4174    4.3675    7.0526 O.3         1 ROC      -0.3840
     23 CA1        -3.8910    2.3811    7.0563 C.3         1 ROC       0.0823
     24 N2         -3.0143    1.8527    8.0652 N.am        1 ROC      -0.2772
     25 CB1        -5.3366    1.7897    7.1188 C.3         1 ROC       0.0066
     26 CG1        -5.3708    0.3062    7.2467 C.ar        1 ROC      -0.0408
     27 CD1        -5.4194   -0.3029    8.5240 C.ar        1 ROC      -0.0603
     28 CD2        -5.3534   -0.5190    6.0936 C.ar        1 ROC      -0.0603
     29 CE1        -5.4578   -1.7051    8.6461 C.ar        1 ROC      -0.0686
     30 CE2        -5.3892   -1.9196    6.2216 C.ar        1 ROC      -0.0686
     31 CZ         -5.4417   -2.5143    7.4962 C.ar        1 ROC      -0.0687
     32 N11        -4.9836    6.2566    7.4322 N.4         1 ROC       0.2562
     33 CM         -4.6542    4.8484    7.8547 C.3         1 ROC      -0.0008
     34 C21        -6.0442    6.4071    6.3688 C.3         1 ROC       0.0688
     35 CC         -5.7576    5.8192    5.0606 C.2         1 ROC       0.2251
     36 O3         -4.6710    6.0222    4.5438 O.2         1 ROC      -0.3909
     37 C31        -6.5257    7.8943    6.2934 C.3         1 ROC       0.0113
     38 C3A        -5.4082    8.9863    6.3038 C.3         1 ROC      -0.0261
     39 C41        -4.8016    9.2988    4.9006 C.3         1 ROC      -0.0494
     40 C51        -3.7033   10.3875    4.9601 C.3         1 ROC      -0.0528
     41 C61        -2.5913   10.0071    5.9690 C.3         1 ROC      -0.0526
     42 C71        -3.1739    9.7298    7.3788 C.3         1 ROC      -0.0451
     43 C7A        -4.3232    8.6709    7.3879 C.3         1 ROC       0.0024
     44 C81        -3.8239    7.1939    7.3030 C.3         1 ROC      -0.0266
     45 N3         -6.6694    5.0615    4.4481 N.am        1 ROC      -0.2771
     46 CD         -6.6539    4.3831    3.1689 C.3         1 ROC       0.0448
     47 C11        -7.5680    5.2183    2.2231 C.3         1 ROC      -0.0396
     48 C22        -7.2837    2.9725    3.3862 C.3         1 ROC      -0.0396
     49 C32        -5.2539    4.1961    2.5034 C.3         1 ROC      -0.0396
     50 H1          1.2977    3.2290    9.4065 H           1 ROC       0.0729
     51 H2          3.0827    4.8182    9.2728 H           1 ROC       0.0774
     52 H3          4.0000    7.1226    9.8219 H           1 ROC       0.0657
     53 H4          3.7103    9.2432   10.9530 H           1 ROC       0.0652
     54 H5          1.6818    9.6951   12.2094 H           1 ROC       0.0657
     55 H6         -0.0784    8.0356   12.3203 H           1 ROC       0.0653
     56 H7         -0.1945    2.0118    9.9771 H           1 ROC       0.1882
     57 H8         -1.6365    0.5344    9.6877 H           1 ROC       0.0826
     58 H9         -1.6381    0.7295   12.2868 H           1 ROC       0.0551
     59 H10        -2.6695   -0.3840   11.4241 H           1 ROC       0.0551
     60 H11        -4.4213    2.7177   13.3400 H           1 ROC       0.1814
     61 H12        -2.8231    2.9078   12.8743 H           1 ROC       0.1814
     62 H13        -4.0640    4.1646    5.8882 H           1 ROC       0.0672
     63 H14        -1.8699    3.5663    6.9163 H           1 ROC       0.2101
     64 H15        -3.4702    1.9835    6.1228 H           1 ROC       0.0606
     65 H16        -2.1634    1.5199    7.7426 H           1 ROC       0.1857
     66 H17        -5.8841    2.0874    6.2200 H           1 ROC       0.0449
     67 H18        -5.8828    2.2217    7.9617 H           1 ROC       0.0449
     68 H19        -5.4172    0.2707    9.3737 H           1 ROC       0.0557
     69 H20        -5.3205   -0.1021    5.1598 H           1 ROC       0.0557
     70 H21        -5.5043   -2.1326    9.5717 H           1 ROC       0.0599
     71 H22        -5.3831   -2.5110    5.3889 H           1 ROC       0.0599
     72 H23        -5.4707   -3.5322    7.5881 H           1 ROC       0.0559
     73 H24        -5.4604    6.6163    8.2632 H           1 ROC       0.2057
     74 H25        -4.1517    4.9050    8.8252 H           1 ROC       0.0841
     75 H26        -5.6067    4.3576    8.0434 H           1 ROC       0.0841
     76 H27        -6.9158    5.8735    6.7658 H           1 ROC       0.1100
     77 H28        -7.1439    8.0762    7.1830 H           1 ROC       0.0348
     78 H29        -7.1831    8.0407    5.4296 H           1 ROC       0.0348
     79 H30        -5.8995    9.9171    6.6157 H           1 ROC       0.0309
     80 H31        -5.5915    9.6303    4.2232 H           1 ROC       0.0268
     81 H32        -4.3486    8.4098    4.4725 H           1 ROC       0.0268
     82 H33        -4.1517   11.3417    5.2491 H           1 ROC       0.0265
     83 H34        -3.2648   10.5074    3.9642 H           1 ROC       0.0265
     84 H35        -1.8702   10.8272    6.0302 H           1 ROC       0.0265
     85 H36        -2.0602    9.1223    5.6096 H           1 ROC       0.0265
     86 H37        -3.5648   10.6726    7.7737 H           1 ROC       0.0270
     87 H38        -2.3675    9.4124    8.0475 H           1 ROC       0.0270
     88 H39        -4.8112    8.7669    8.3660 H           1 ROC       0.0355
     89 H40        -3.2765    7.0280    6.3773 H           1 ROC       0.0818
     90 H41        -3.1320    7.0318    8.1339 H           1 ROC       0.0818
     91 H42        -7.5075    4.9754    4.9285 H           1 ROC       0.1859
     92 H43        -7.6625    4.7393    1.2475 H           1 ROC       0.0254
     93 H44        -7.1492    6.2160    2.0776 H           1 ROC       0.0254
     94 H45        -8.5680    5.3275    2.6489 H           1 ROC       0.0254
     95 H46        -7.4443    2.4622    2.4351 H           1 ROC       0.0254
     96 H47        -8.2483    3.0480    3.8922 H           1 ROC       0.0254
     97 H48        -6.6295    2.3469    3.9952 H           1 ROC       0.0254
     98 H49        -5.3251    3.5624    1.6137 H           1 ROC       0.0254
     99 H50        -4.5546    3.7268    3.1980 H           1 ROC       0.0254
    100 H51        -4.8428    5.1562    2.1918 H           1 ROC       0.0254
@<TRIPOS>BOND
     1     1     2   2
     2     1     4   1
     3    13     1  am
     4     4     3  ar
     5     3    12  ar
     6     4     5  ar
     7     5     6  ar
     8     6    11  ar
     9     7     8  ar
    10    11     7  ar
    11     9     8  ar
    12    10     9  ar
    13    12    10  ar
    14    12    11  ar
    15    14    13   1
    16    15    14   1
    17    14    17   1
    18    15    16   2
    19    24    15  am
    20    17    18   1
    21    18    19   2
    22    18    20  am
    23    21    22   1
    24    23    21   1
    25    21    33   1
    26    23    24   1
    27    23    25   1
    28    25    26   1
    29    26    27  ar
    30    26    28  ar
    31    27    29  ar
    32    28    30  ar
    33    29    31  ar
    34    30    31  ar
    35    33    32   1
    36    32    34   1
    37    32    44   1
    38    34    35   1
    39    34    37   1
    40    35    36   2
    41    35    45  am
    42    37    38   1
    43    38    39   1
    44    38    43   1
    45    39    40   1
    46    40    41   1
    47    41    42   1
    48    42    43   1
    49    43    44   1
    50    45    46   1
    51    46    47   1
    52    46    48   1
    53    46    49   1
    54     5    50   1
    55     6    51   1
    56     7    52   1
    57     8    53   1
    58     9    54   1
    59    10    55   1
    60    13    56   1
    61    14    57   1
    62    17    58   1
    63    17    59   1
    64    20    60   1
    65    20    61   1
    66    21    62   1
    67    22    63   1
    68    23    64   1
    69    24    65   1
    70    25    66   1
    71    25    67   1
    72    27    68   1
    73    28    69   1
    74    29    70   1
    75    30    71   1
    76    31    72   1
    77    32    73   1
    78    33    74   1
    79    33    75   1
    80    34    76   1
    81    37    77   1
    82    37    78   1
    83    38    79   1
    84    39    80   1
    85    39    81   1
    86    40    82   1
    87    40    83   1
    88    41    84   1
    89    41    85   1
    90    42    86   1
    91    42    87   1
    92    43    88   1
    93    44    89   1
    94    44    90   1
    95    45    91   1
    96    47    92   1
    97    47    93   1
    98    47    94   1
    99    48    95   1
   100    48    96   1
   101    48    97   1
   102    49    98   1
   103    49    99   1
   104    49   100   1
@<TRIPOS>SUBSTRUCTURE
     1  ROC      1

