@<TRIPOS>MOLECULE
3pww_ligand_069
   100   104
SMALL
GAST_HUCK
****
This file was generated by PARSER (from files_GN.cpp)

@<TRIPOS>ATOM
      1 C          -5.4051   -1.5796    6.5592 C.2         1 ROC       0.2293
      2 O          -5.3791   -2.6581    7.1427 O.2         1 ROC      -0.3762
      3 N1         -7.5123   -2.2004    5.6347 N.ar        1 ROC      -0.2737
      4 C2         -6.4660   -1.3244    5.6852 C.ar        1 ROC       0.1219
      5 C3         -6.5310   -0.1905    4.8388 C.ar        1 ROC      -0.0136
      6 C4         -7.6647    0.0323    4.0362 C.ar        1 ROC      -0.0314
      7 C5         -9.8917   -0.6987    3.2570 C.ar        1 ROC      -0.0444
      8 C6        -10.9046   -1.6757    3.2502 C.ar        1 ROC      -0.0546
      9 C7        -10.7712   -2.8370    4.0346 C.ar        1 ROC      -0.0545
     10 C8         -9.6354   -3.0154    4.8466 C.ar        1 ROC      -0.0370
     11 C4A        -8.7356   -0.8834    4.0465 C.ar        1 ROC       0.0097
     12 C8A        -8.6177   -2.0415    4.8590 C.ar        1 ROC       0.0527
     13 N          -4.4624   -0.6763    6.8264 N.am        1 ROC      -0.2600
     14 CA         -3.3722   -0.7998    7.7610 C.3         1 ROC       0.1473
     15 C1         -3.8360   -0.3496    9.0745 C.2         1 ROC       0.2045
     16 O1         -4.4264   -1.1656    9.7724 O.2         1 ROC      -0.3943
     17 CB         -2.1201   -0.0338    7.2324 C.3         1 ROC       0.0773
     18 CG         -1.5609   -0.5865    6.0127 C.2         1 ROC       0.1780
     19 OD1        -1.8920   -0.1354    4.9249 O.2         1 ROC      -0.3970
     20 ND2        -0.6390   -1.5244    6.0497 N.am        1 ROC      -0.3007
     21 C9         -4.9578    2.6906   10.5451 C.3         1 ROC       0.1194
     22 O2         -6.2001    2.1888   10.0525 O.3         1 ROC      -0.3840
     23 CA1        -4.0197    1.4642   10.7788 C.3         1 ROC       0.0823
     24 N2         -3.6442    0.8965    9.5067 N.am        1 ROC      -0.2772
     25 CB1        -2.7990    1.7850   11.7194 C.3         1 ROC       0.0066
     26 CG1        -1.4705    1.3646   11.1984 C.ar        1 ROC      -0.0408
     27 CD1        -1.0845    0.0048   11.2478 C.ar        1 ROC      -0.0603
     28 CD2        -0.6033    2.2987   10.5841 C.ar        1 ROC      -0.0603
     29 CE1         0.1374   -0.4115   10.6893 C.ar        1 ROC      -0.0686
     30 CE2         0.6094    1.8778   10.0092 C.ar        1 ROC      -0.0686
     31 CZ          0.9757    0.5209   10.0548 C.ar        1 ROC      -0.0687
     32 N11        -4.3675    3.7802    8.1937 N.4         1 ROC       0.2562
     33 CM         -4.3888    3.8881    9.7009 C.3         1 ROC      -0.0008
     34 C21        -3.2768    4.5995    7.5214 C.3         1 ROC       0.0688
     35 CC         -3.2916    6.0569    7.7142 C.2         1 ROC       0.2251
     36 O3         -4.2113    6.5744    8.3300 O.2         1 ROC      -0.3909
     37 C31        -3.2049    4.2081    6.0063 C.3         1 ROC       0.0113
     38 C3A        -4.5627    4.2744    5.2413 C.3         1 ROC      -0.0261
     39 C41        -4.9978    5.7201    4.8394 C.3         1 ROC      -0.0494
     40 C51        -6.3720    5.7437    4.1220 C.3         1 ROC      -0.0528
     41 C61        -7.4689    5.0423    4.9615 C.3         1 ROC      -0.0526
     42 C71        -7.0526    3.5977    5.3351 C.3         1 ROC      -0.0451
     43 C7A        -5.6653    3.5176    6.0458 C.3         1 ROC       0.0024
     44 C81        -5.7069    3.9707    7.5319 C.3         1 ROC      -0.0266
     45 N3         -2.2925    6.7949    7.2335 N.am        1 ROC      -0.2771
     46 CD         -2.0899    8.2270    7.1882 C.3         1 ROC       0.0448
     47 C11        -1.6547    8.5513    5.7263 C.3         1 ROC      -0.0396
     48 C22        -0.9267    8.5390    8.1753 C.3         1 ROC      -0.0396
     49 C32        -3.3188    9.1316    7.5260 C.3         1 ROC      -0.0396
     50 H1         -5.7593    0.4743    4.7848 H           1 ROC       0.0729
     51 H2         -7.6977    0.8562    3.4316 H           1 ROC       0.0774
     52 H3         -9.9981    0.1365    2.6747 H           1 ROC       0.0657
     53 H4        -11.7335   -1.5472    2.6658 H           1 ROC       0.0652
     54 H5        -11.5020   -3.5514    4.0139 H           1 ROC       0.0657
     55 H6         -9.5492   -3.8600    5.4174 H           1 ROC       0.0653
     56 H7         -4.5369    0.1822    6.3838 H           1 ROC       0.1882
     57 H8         -3.0691   -1.8512    7.8506 H           1 ROC       0.0826
     58 H9         -1.3451   -0.0362    8.0044 H           1 ROC       0.0551
     59 H10        -2.3854    1.0110    7.0530 H           1 ROC       0.0551
     60 H11        -0.2501   -1.8533    5.2233 H           1 ROC       0.1814
     61 H12        -0.3355   -1.8799    6.9031 H           1 ROC       0.1814
     62 H13        -5.1961    3.0944   11.5348 H           1 ROC       0.0672
     63 H14        -6.8069    2.9576   10.0844 H           1 ROC       0.2101
     64 H15        -4.6269    0.7343   11.3278 H           1 ROC       0.0606
     65 H16        -3.1456    1.4849    8.9228 H           1 ROC       0.1857
     66 H17        -2.9533    1.2927   12.6857 H           1 ROC       0.0449
     67 H18        -2.7670    2.8503   11.9608 H           1 ROC       0.0449
     68 H19        -1.6951   -0.6914   11.6827 H           1 ROC       0.0557
     69 H20        -0.8582    3.2876   10.5327 H           1 ROC       0.0557
     70 H21         0.4157   -1.3916   10.7458 H           1 ROC       0.0599
     71 H22         1.2213    2.5581    9.5533 H           1 ROC       0.0599
     72 H23         1.8491    0.2102    9.6257 H           1 ROC       0.0559
     73 H24        -4.1098    2.8114    8.0040 H           1 ROC       0.2057
     74 H25        -3.3725    4.0702   10.0593 H           1 ROC       0.0841
     75 H26        -4.9497    4.7823    9.9763 H           1 ROC       0.0841
     76 H27        -2.3258    4.2630    7.9530 H           1 ROC       0.1100
     77 H28        -2.8507    3.1744    5.9570 H           1 ROC       0.0348
     78 H29        -2.4618    4.8072    5.4756 H           1 ROC       0.0348
     79 H30        -4.4205    3.7278    4.3017 H           1 ROC       0.0309
     80 H31        -4.2459    6.1502    4.1732 H           1 ROC       0.0268
     81 H32        -5.0681    6.3599    5.7180 H           1 ROC       0.0268
     82 H33        -6.2840    5.2486    3.1508 H           1 ROC       0.0265
     83 H34        -6.6678    6.7807    3.9429 H           1 ROC       0.0265
     84 H35        -8.3973    5.0104    4.3857 H           1 ROC       0.0265
     85 H36        -7.6616    5.6184    5.8701 H           1 ROC       0.0265
     86 H37        -7.0037    3.0128    4.4142 H           1 ROC       0.0270
     87 H38        -7.8258    3.1473    5.9639 H           1 ROC       0.0270
     88 H39        -5.3863    2.4590    6.0665 H           1 ROC       0.0355
     89 H40        -6.0401    5.0063    7.6130 H           1 ROC       0.0818
     90 H41        -6.4694    3.3610    8.0095 H           1 ROC       0.0818
     91 H42        -1.5607    6.2879    6.8425 H           1 ROC       0.1859
     92 H43        -1.4466    9.6172    5.6130 H           1 ROC       0.0254
     93 H44        -2.4457    8.2827    5.0214 H           1 ROC       0.0254
     94 H45        -0.7539    7.9977    5.4517 H           1 ROC       0.0254
     95 H46        -0.6853    9.6042    8.1723 H           1 ROC       0.0254
     96 H47        -0.0248    7.9835    7.9059 H           1 ROC       0.0254
     97 H48        -1.2086    8.2532    9.1918 H           1 ROC       0.0254
     98 H49        -3.0768   10.1890    7.3882 H           1 ROC       0.0254
     99 H50        -3.6252    9.0005    8.5615 H           1 ROC       0.0254
    100 H51        -4.1629    8.8877    6.8780 H           1 ROC       0.0254
@<TRIPOS>BOND
     1     1     2   2
     2     1     4   1
     3    13     1  am
     4     4     3  ar
     5     3    12  ar
     6     4     5  ar
     7     5     6  ar
     8     6    11  ar
     9     7     8  ar
    10    11     7  ar
    11     9     8  ar
    12    10     9  ar
    13    12    10  ar
    14    12    11  ar
    15    14    13   1
    16    15    14   1
    17    14    17   1
    18    15    16   2
    19    24    15  am
    20    17    18   1
    21    18    19   2
    22    18    20  am
    23    21    22   1
    24    23    21   1
    25    21    33   1
    26    23    24   1
    27    23    25   1
    28    25    26   1
    29    26    27  ar
    30    26    28  ar
    31    27    29  ar
    32    28    30  ar
    33    29    31  ar
    34    30    31  ar
    35    33    32   1
    36    32    34   1
    37    32    44   1
    38    34    35   1
    39    34    37   1
    40    35    36   2
    41    35    45  am
    42    37    38   1
    43    38    39   1
    44    38    43   1
    45    39    40   1
    46    40    41   1
    47    41    42   1
    48    42    43   1
    49    43    44   1
    50    45    46   1
    51    46    47   1
    52    46    48   1
    53    46    49   1
    54     5    50   1
    55     6    51   1
    56     7    52   1
    57     8    53   1
    58     9    54   1
    59    10    55   1
    60    13    56   1
    61    14    57   1
    62    17    58   1
    63    17    59   1
    64    20    60   1
    65    20    61   1
    66    21    62   1
    67    22    63   1
    68    23    64   1
    69    24    65   1
    70    25    66   1
    71    25    67   1
    72    27    68   1
    73    28    69   1
    74    29    70   1
    75    30    71   1
    76    31    72   1
    77    32    73   1
    78    33    74   1
    79    33    75   1
    80    34    76   1
    81    37    77   1
    82    37    78   1
    83    38    79   1
    84    39    80   1
    85    39    81   1
    86    40    82   1
    87    40    83   1
    88    41    84   1
    89    41    85   1
    90    42    86   1
    91    42    87   1
    92    43    88   1
    93    44    89   1
    94    44    90   1
    95    45    91   1
    96    47    92   1
    97    47    93   1
    98    47    94   1
    99    48    95   1
   100    48    96   1
   101    48    97   1
   102    49    98   1
   103    49    99   1
   104    49   100   1
@<TRIPOS>SUBSTRUCTURE
     1  ROC      1

