@<TRIPOS>MOLECULE
3pww_ligand_066
   100   104
SMALL
GAST_HUCK
****
This file was generated by PARSER (from files_GN.cpp)

@<TRIPOS>ATOM
      1 C          -2.2153    2.6586   11.1725 C.2         1 ROC       0.2293
      2 O          -2.8199    3.5956   11.6785 O.2         1 ROC      -0.3762
      3 N1         -4.0837    1.2603   11.5707 N.ar        1 ROC      -0.2737
      4 C2         -2.7506    1.3843   11.3112 C.ar        1 ROC       0.1219
      5 C3         -1.9843    0.2005   11.1985 C.ar        1 ROC      -0.0136
      6 C4         -2.6061   -1.0542   11.3530 C.ar        1 ROC      -0.0314
      7 C5         -4.6552   -2.3669   11.7775 C.ar        1 ROC      -0.0444
      8 C6         -6.0411   -2.3989   12.0269 C.ar        1 ROC      -0.0546
      9 C7         -6.7681   -1.1996   12.1179 C.ar        1 ROC      -0.0545
     10 C8         -6.1147    0.0374   11.9666 C.ar        1 ROC      -0.0370
     11 C4A        -3.9896   -1.1338   11.6111 C.ar        1 ROC       0.0097
     12 C8A        -4.7301    0.0742   11.7140 C.ar        1 ROC       0.0527
     13 N          -1.1096    2.8868   10.4630 N.am        1 ROC      -0.2600
     14 CA         -0.5142    4.1718   10.2045 C.3         1 ROC       0.1473
     15 C1         -1.4644    5.0289    9.5055 C.2         1 ROC       0.2045
     16 O1         -1.8239    6.0687   10.0510 O.2         1 ROC      -0.3943
     17 CB          0.8178    4.0324    9.4055 C.3         1 ROC       0.0773
     18 CG          1.6975    5.1861    9.5247 C.2         1 ROC       0.1780
     19 OD1         1.3198    6.3032    9.1970 O.2         1 ROC      -0.3970
     20 ND2         2.9353    5.0588    9.9403 N.am        1 ROC      -0.3007
     21 C9         -3.8435    4.2613    6.7875 C.3         1 ROC       0.1194
     22 O2         -3.0694    3.7361    5.7073 O.3         1 ROC      -0.3840
     23 CA1        -3.0395    5.3189    7.6228 C.3         1 ROC       0.0823
     24 N2         -2.0108    4.6293    8.3579 N.am        1 ROC      -0.2772
     25 CB1        -2.3777    6.4880    6.8084 C.3         1 ROC       0.0066
     26 CG1        -3.1884    7.6958    6.4833 C.ar        1 ROC      -0.0408
     27 CD1        -2.9934    8.3711    5.2524 C.ar        1 ROC      -0.0603
     28 CD2        -4.0214    8.2987    7.4573 C.ar        1 ROC      -0.0603
     29 CE1        -3.6111    9.6124    5.0067 C.ar        1 ROC      -0.0686
     30 CE2        -4.6598    9.5266    7.1980 C.ar        1 ROC      -0.0686
     31 CZ         -4.4521   10.1876    5.9742 C.ar        1 ROC      -0.0687
     32 N11        -6.0067    4.0217    5.2749 N.4         1 ROC       0.2562
     33 CM         -5.2202    4.8001    6.2998 C.3         1 ROC      -0.0008
     34 C21        -7.3744    4.6233    5.0072 C.3         1 ROC       0.0688
     35 CC         -8.3472    4.6419    6.1123 C.2         1 ROC       0.2251
     36 O3         -8.2338    3.8448    7.0344 O.2         1 ROC      -0.3909
     37 C31        -7.9731    3.9999    3.7026 C.3         1 ROC       0.0113
     38 C3A        -7.9580    2.4387    3.6534 C.3         1 ROC      -0.0261
     39 C41        -9.1299    1.7742    4.4396 C.3         1 ROC      -0.0494
     40 C51        -9.0704    0.2305    4.3513 C.3         1 ROC      -0.0528
     41 C61        -7.7089   -0.3104    4.8480 C.3         1 ROC      -0.0526
     42 C71        -6.5285    0.3278    4.0752 C.3         1 ROC      -0.0451
     43 C7A        -6.5550    1.8882    4.0682 C.3         1 ROC       0.0024
     44 C81        -6.0410    2.5234    5.3965 C.3         1 ROC      -0.0266
     45 N3         -9.3292    5.5379    6.1005 N.am        1 ROC      -0.2771
     46 CD        -10.4044    5.8008    7.0361 C.3         1 ROC       0.0448
     47 C11       -11.6965    5.9158    6.1723 C.3         1 ROC      -0.0396
     48 C22       -10.1063    7.1710    7.7137 C.3         1 ROC      -0.0396
     49 C32       -10.6545    4.7249    8.1428 C.3         1 ROC      -0.0396
     50 H1         -0.9758    0.2339   11.0257 H           1 ROC       0.0729
     51 H2         -2.0384   -1.9038   11.2802 H           1 ROC       0.0774
     52 H3         -4.1390   -3.2428   11.7191 H           1 ROC       0.0657
     53 H4         -6.5174   -3.2955   12.1318 H           1 ROC       0.0652
     54 H5         -7.7736   -1.2255   12.2979 H           1 ROC       0.0657
     55 H6         -6.6508    0.9063   12.0407 H           1 ROC       0.0653
     56 H7         -0.6804    2.1228   10.0504 H           1 ROC       0.1882
     57 H8         -0.2692    4.6030   11.1829 H           1 ROC       0.0826
     58 H9          0.6101    3.8671    8.3462 H           1 ROC       0.0551
     59 H10         1.3370    3.1430    9.7700 H           1 ROC       0.0551
     60 H11         3.5127    5.8372   10.0039 H           1 ROC       0.1814
     61 H12         3.2834    4.1772   10.1516 H           1 ROC       0.1814
     62 H13        -4.0720    3.4129    7.4408 H           1 ROC       0.0672
     63 H14        -2.3434    3.2416    6.1364 H           1 ROC       0.2101
     64 H15        -3.7341    5.7270    8.3624 H           1 ROC       0.0606
     65 H16        -1.7007    3.7745    8.0011 H           1 ROC       0.1857
     66 H17        -1.9465    6.0621    5.8997 H           1 ROC       0.0449
     67 H18        -1.5233    6.8740    7.3639 H           1 ROC       0.0449
     68 H19        -2.3561    7.9906    4.5470 H           1 ROC       0.0557
     69 H20        -4.1494    7.8715    8.3778 H           1 ROC       0.0557
     70 H21        -3.4264   10.1111    4.1319 H           1 ROC       0.0599
     71 H22        -5.2550    9.9538    7.9082 H           1 ROC       0.0599
     72 H23        -4.8965   11.0944    5.7977 H           1 ROC       0.0559
     73 H24        -5.4897    4.1780    4.4057 H           1 ROC       0.2057
     74 H25        -5.0439    5.7860    5.8656 H           1 ROC       0.0841
     75 H26        -5.8346    4.9535    7.1920 H           1 ROC       0.0841
     76 H27        -7.1953    5.6812    4.7662 H           1 ROC       0.1100
     77 H28        -7.3701    4.3669    2.8643 H           1 ROC       0.0348
     78 H29        -8.9884    4.3687    3.5281 H           1 ROC       0.0348
     79 H30        -8.1097    2.1728    2.6022 H           1 ROC       0.0309
     80 H31       -10.0830    2.1198    4.0292 H           1 ROC       0.0268
     81 H32        -9.0962    2.0615    5.4900 H           1 ROC       0.0268
     82 H33        -9.2314   -0.0799    3.3149 H           1 ROC       0.0265
     83 H34        -9.8743   -0.1950    4.9545 H           1 ROC       0.0265
     84 H35        -7.6853   -1.3928    4.7141 H           1 ROC       0.0265
     85 H36        -7.6050   -0.1083    5.9160 H           1 ROC       0.0265
     86 H37        -6.5614   -0.0252    3.0417 H           1 ROC       0.0270
     87 H38        -5.5908   -0.0280    4.5041 H           1 ROC       0.0270
     88 H39        -5.8459    2.2042    3.2948 H           1 ROC       0.0355
     89 H40        -6.6519    2.2012    6.2413 H           1 ROC       0.0818
     90 H41        -5.0343    2.1418    5.5695 H           1 ROC       0.0818
     91 H42        -9.2925    6.1593    5.3544 H           1 ROC       0.1859
     92 H43       -12.5590    6.1795    6.7894 H           1 ROC       0.0254
     93 H44       -11.9067    4.9654    5.6767 H           1 ROC       0.0254
     94 H45       -11.5857    6.6838    5.4017 H           1 ROC       0.0254
     95 H46       -10.9211    7.4629    8.3802 H           1 ROC       0.0254
     96 H47        -9.9804    7.9590    6.9685 H           1 ROC       0.0254
     97 H48        -9.1890    7.1145    8.3031 H           1 ROC       0.0254
     98 H49       -11.5501    4.9651    8.7222 H           1 ROC       0.0254
     99 H50        -9.8202    4.6721    8.8446 H           1 ROC       0.0254
    100 H51       -10.7950    3.7411    7.6907 H           1 ROC       0.0254
@<TRIPOS>BOND
     1     1     2   2
     2     1     4   1
     3    13     1  am
     4     4     3  ar
     5     3    12  ar
     6     4     5  ar
     7     5     6  ar
     8     6    11  ar
     9     7     8  ar
    10    11     7  ar
    11     9     8  ar
    12    10     9  ar
    13    12    10  ar
    14    12    11  ar
    15    14    13   1
    16    15    14   1
    17    14    17   1
    18    15    16   2
    19    24    15  am
    20    17    18   1
    21    18    19   2
    22    18    20  am
    23    21    22   1
    24    23    21   1
    25    21    33   1
    26    23    24   1
    27    23    25   1
    28    25    26   1
    29    26    27  ar
    30    26    28  ar
    31    27    29  ar
    32    28    30  ar
    33    29    31  ar
    34    30    31  ar
    35    33    32   1
    36    32    34   1
    37    32    44   1
    38    34    35   1
    39    34    37   1
    40    35    36   2
    41    35    45  am
    42    37    38   1
    43    38    39   1
    44    38    43   1
    45    39    40   1
    46    40    41   1
    47    41    42   1
    48    42    43   1
    49    43    44   1
    50    45    46   1
    51    46    47   1
    52    46    48   1
    53    46    49   1
    54     5    50   1
    55     6    51   1
    56     7    52   1
    57     8    53   1
    58     9    54   1
    59    10    55   1
    60    13    56   1
    61    14    57   1
    62    17    58   1
    63    17    59   1
    64    20    60   1
    65    20    61   1
    66    21    62   1
    67    22    63   1
    68    23    64   1
    69    24    65   1
    70    25    66   1
    71    25    67   1
    72    27    68   1
    73    28    69   1
    74    29    70   1
    75    30    71   1
    76    31    72   1
    77    32    73   1
    78    33    74   1
    79    33    75   1
    80    34    76   1
    81    37    77   1
    82    37    78   1
    83    38    79   1
    84    39    80   1
    85    39    81   1
    86    40    82   1
    87    40    83   1
    88    41    84   1
    89    41    85   1
    90    42    86   1
    91    42    87   1
    92    43    88   1
    93    44    89   1
    94    44    90   1
    95    45    91   1
    96    47    92   1
    97    47    93   1
    98    47    94   1
    99    48    95   1
   100    48    96   1
   101    48    97   1
   102    49    98   1
   103    49    99   1
   104    49   100   1
@<TRIPOS>SUBSTRUCTURE
     1  ROC      1

