@<TRIPOS>MOLECULE
3pww_ligand_056
   100   104
SMALL
GAST_HUCK
****
This file was generated by PARSER (from files_GN.cpp)

@<TRIPOS>ATOM
      1 C          -4.0995    2.6981    6.5721 C.2         1 ROC       0.2293
      2 O          -5.1709    2.3802    6.0602 O.2         1 ROC      -0.3762
      3 N1         -4.9552    4.8827    6.8584 N.ar        1 ROC      -0.2737
      4 C2         -3.8770    4.0507    6.8281 C.ar        1 ROC       0.1219
      5 C3         -2.6006    4.6148    7.0757 C.ar        1 ROC      -0.0136
      6 C4         -2.4856    5.9944    7.3362 C.ar        1 ROC      -0.0314
      7 C5         -3.5776    8.2000    7.6439 C.ar        1 ROC      -0.0444
      8 C6         -4.7595    8.9645    7.6706 C.ar        1 ROC      -0.0546
      9 C7         -6.0051    8.3554    7.4246 C.ar        1 ROC      -0.0545
     10 C8         -6.0714    6.9797    7.1459 C.ar        1 ROC      -0.0370
     11 C4A        -3.6340    6.8141    7.3714 C.ar        1 ROC       0.0097
     12 C8A        -4.8935    6.2122    7.1187 C.ar        1 ROC       0.0527
     13 N          -3.2444    1.7355    6.9090 N.am        1 ROC      -0.2600
     14 CA         -3.4626    0.3152    6.7569 C.3         1 ROC       0.1473
     15 C1         -4.6114   -0.1312    7.5474 C.2         1 ROC       0.2045
     16 O1         -5.5407   -0.6884    6.9735 O.2         1 ROC      -0.3943
     17 CB         -2.1717   -0.4786    7.1252 C.3         1 ROC       0.0773
     18 CG         -1.0532   -0.3321    6.2038 C.2         1 ROC       0.1780
     19 OD1        -1.0992    0.3896    5.2169 O.2         1 ROC      -0.3970
     20 ND2         0.0641   -0.9951    6.4103 N.am        1 ROC      -0.3007
     21 C9         -6.8556    0.9618    9.5746 C.3         1 ROC       0.1194
     22 O2         -6.8716    1.8043   10.7324 O.3         1 ROC      -0.3840
     23 CA1        -5.7587   -0.1788    9.7481 C.3         1 ROC       0.0823
     24 N2         -4.6556    0.0997    8.8566 N.am        1 ROC      -0.2772
     25 CB1        -5.1636   -0.4372   11.1919 C.3         1 ROC       0.0066
     26 CG1        -5.6787   -1.6377   11.9166 C.ar        1 ROC      -0.0408
     27 CD1        -7.0675   -1.8301   12.1072 C.ar        1 ROC      -0.0603
     28 CD2        -4.7905   -2.5786   12.4961 C.ar        1 ROC      -0.0603
     29 CE1        -7.5533   -2.9558   12.7992 C.ar        1 ROC      -0.0686
     30 CE2        -5.2781   -3.6676   13.2427 C.ar        1 ROC      -0.0686
     31 CZ         -6.6597   -3.8682   13.3811 C.ar        1 ROC      -0.0687
     32 N11        -9.3856    1.4302    8.7487 N.4         1 ROC       0.2562
     33 CM         -8.3120    0.4699    9.2368 C.3         1 ROC      -0.0008
     34 C21        -9.8046    1.2925    7.2994 C.3         1 ROC       0.0688
     35 CC         -8.7800    1.4730    6.2638 C.2         1 ROC       0.2251
     36 O3         -7.6579    1.8584    6.5756 O.2         1 ROC      -0.3909
     37 C31       -11.0783    2.1649    7.0230 C.3         1 ROC       0.0113
     38 C3A       -10.9675    3.6530    7.4749 C.3         1 ROC      -0.0261
     39 C41       -10.0771    4.5469    6.5529 C.3         1 ROC      -0.0494
     40 C51        -9.9967    6.0043    7.0704 C.3         1 ROC      -0.0528
     41 C61        -9.4943    6.0558    8.5350 C.3         1 ROC      -0.0526
     42 C71       -10.3679    5.1798    9.4680 C.3         1 ROC      -0.0451
     43 C7A       -10.5254    3.7105    8.9682 C.3         1 ROC       0.0024
     44 C81        -9.2535    2.8483    9.2169 C.3         1 ROC      -0.0266
     45 N3         -9.0706    1.1997    4.9933 N.am        1 ROC      -0.2771
     46 CD         -8.2270    1.2752    3.8192 C.3         1 ROC       0.0448
     47 C11        -9.1356    0.9519    2.5929 C.3         1 ROC      -0.0396
     48 C22        -7.0933    0.2064    3.9010 C.3         1 ROC      -0.0396
     49 C32        -7.6346    2.7066    3.6222 C.3         1 ROC      -0.0396
     50 H1         -1.7591    4.0385    7.0552 H           1 ROC       0.0729
     51 H2         -1.5571    6.3901    7.5045 H           1 ROC       0.0774
     52 H3         -2.6787    8.6570    7.8181 H           1 ROC       0.0657
     53 H4         -4.7128    9.9664    7.8594 H           1 ROC       0.0652
     54 H5         -6.8600    8.9161    7.4370 H           1 ROC       0.0657
     55 H6         -6.9762    6.5418    6.9599 H           1 ROC       0.0653
     56 H7         -2.3979    2.0060    7.2957 H           1 ROC       0.1882
     57 H8         -3.6639    0.1166    5.6977 H           1 ROC       0.0826
     58 H9         -2.4113   -1.5448    7.1723 H           1 ROC       0.0551
     59 H10        -1.8383   -0.1703    8.1220 H           1 ROC       0.0551
     60 H11         0.8130   -0.8890    5.7970 H           1 ROC       0.1814
     61 H12         0.1500   -1.5847    7.1800 H           1 ROC       0.1814
     62 H13        -6.5406    1.6052    8.7458 H           1 ROC       0.0672
     63 H14        -6.9595    2.7249   10.3869 H           1 ROC       0.2101
     64 H15        -6.1932   -1.1333    9.4204 H           1 ROC       0.0606
     65 H16        -3.8875    0.5474    9.2430 H           1 ROC       0.1857
     66 H17        -5.3164    0.4219   11.8433 H           1 ROC       0.0449
     67 H18        -4.0759   -0.5306   11.1139 H           1 ROC       0.0449
     68 H19        -7.7372   -1.1539   11.7442 H           1 ROC       0.0557
     69 H20        -3.7791   -2.4625   12.4023 H           1 ROC       0.0557
     70 H21        -8.5568   -3.1074   12.8895 H           1 ROC       0.0599
     71 H22        -4.6298   -4.3167   13.6906 H           1 ROC       0.0599
     72 H23        -7.0133   -4.6766   13.8975 H           1 ROC       0.0559
     73 H24       -10.2191    1.1046    9.2406 H           1 ROC       0.2057
     74 H25        -8.7097    0.0283   10.1502 H           1 ROC       0.0841
     75 H26        -8.2234   -0.3550    8.5269 H           1 ROC       0.0841
     76 H27       -10.1316    0.2539    7.1866 H           1 ROC       0.1100
     77 H28       -11.9048    1.7139    7.5803 H           1 ROC       0.0348
     78 H29       -11.3689    2.1307    5.9690 H           1 ROC       0.0348
     79 H30       -11.9819    4.0696    7.4177 H           1 ROC       0.0309
     80 H31       -10.4915    4.5495    5.5409 H           1 ROC       0.0268
     81 H32        -9.0624    4.1540    6.4961 H           1 ROC       0.0268
     82 H33       -10.9846    6.4690    7.0070 H           1 ROC       0.0265
     83 H34        -9.3188    6.5755    6.4331 H           1 ROC       0.0265
     84 H35        -9.5165    7.0883    8.8865 H           1 ROC       0.0265
     85 H36        -8.4591    5.7120    8.5766 H           1 ROC       0.0265
     86 H37       -11.3608    5.6322    9.5382 H           1 ROC       0.0270
     87 H38        -9.9397    5.1863   10.4743 H           1 ROC       0.0270
     88 H39       -11.3221    3.2570    9.5697 H           1 ROC       0.0355
     89 H40        -8.3844    3.3140    8.7496 H           1 ROC       0.0818
     90 H41        -9.1159    2.8504   10.2987 H           1 ROC       0.0818
     91 H42        -9.9768    0.8907    4.8362 H           1 ROC       0.1859
     92 H43        -8.5654    1.0081    1.6618 H           1 ROC       0.0254
     93 H44        -9.9619    1.6655    2.5268 H           1 ROC       0.0254
     94 H45        -9.5596   -0.0532    2.6731 H           1 ROC       0.0254
     95 H46        -6.5306    0.1636    2.9659 H           1 ROC       0.0254
     96 H47        -7.5161   -0.7817    4.0989 H           1 ROC       0.0254
     97 H48        -6.3932    0.4409    4.7014 H           1 ROC       0.0254
     98 H49        -7.0663    2.7586    2.6899 H           1 ROC       0.0254
     99 H50        -6.9625    2.9739    4.4367 H           1 ROC       0.0254
    100 H51        -8.4352    3.4496    3.5832 H           1 ROC       0.0254
@<TRIPOS>BOND
     1     1     2   2
     2     1     4   1
     3    13     1  am
     4     4     3  ar
     5     3    12  ar
     6     4     5  ar
     7     5     6  ar
     8     6    11  ar
     9     7     8  ar
    10    11     7  ar
    11     9     8  ar
    12    10     9  ar
    13    12    10  ar
    14    12    11  ar
    15    14    13   1
    16    15    14   1
    17    14    17   1
    18    15    16   2
    19    24    15  am
    20    17    18   1
    21    18    19   2
    22    18    20  am
    23    21    22   1
    24    23    21   1
    25    21    33   1
    26    23    24   1
    27    23    25   1
    28    25    26   1
    29    26    27  ar
    30    26    28  ar
    31    27    29  ar
    32    28    30  ar
    33    29    31  ar
    34    30    31  ar
    35    33    32   1
    36    32    34   1
    37    32    44   1
    38    34    35   1
    39    34    37   1
    40    35    36   2
    41    35    45  am
    42    37    38   1
    43    38    39   1
    44    38    43   1
    45    39    40   1
    46    40    41   1
    47    41    42   1
    48    42    43   1
    49    43    44   1
    50    45    46   1
    51    46    47   1
    52    46    48   1
    53    46    49   1
    54     5    50   1
    55     6    51   1
    56     7    52   1
    57     8    53   1
    58     9    54   1
    59    10    55   1
    60    13    56   1
    61    14    57   1
    62    17    58   1
    63    17    59   1
    64    20    60   1
    65    20    61   1
    66    21    62   1
    67    22    63   1
    68    23    64   1
    69    24    65   1
    70    25    66   1
    71    25    67   1
    72    27    68   1
    73    28    69   1
    74    29    70   1
    75    30    71   1
    76    31    72   1
    77    32    73   1
    78    33    74   1
    79    33    75   1
    80    34    76   1
    81    37    77   1
    82    37    78   1
    83    38    79   1
    84    39    80   1
    85    39    81   1
    86    40    82   1
    87    40    83   1
    88    41    84   1
    89    41    85   1
    90    42    86   1
    91    42    87   1
    92    43    88   1
    93    44    89   1
    94    44    90   1
    95    45    91   1
    96    47    92   1
    97    47    93   1
    98    47    94   1
    99    48    95   1
   100    48    96   1
   101    48    97   1
   102    49    98   1
   103    49    99   1
   104    49   100   1
@<TRIPOS>SUBSTRUCTURE
     1  ROC      1

