@<TRIPOS>MOLECULE
3pww_ligand_012
   100   104
SMALL
GAST_HUCK
****
This file was generated by PARSER (from files_GN.cpp)

@<TRIPOS>ATOM
      1 C          -3.2088   -0.9353   10.2268 C.2         1 ROC       0.2293
      2 O          -2.1131   -0.6533   10.6945 O.2         1 ROC      -0.3762
      3 N1         -3.6807   -2.2149   12.1724 N.ar        1 ROC      -0.2737
      4 C2         -4.1082   -1.6701   10.9980 C.ar        1 ROC       0.1219
      5 C3         -5.4635   -1.8760   10.6384 C.ar        1 ROC      -0.0136
      6 C4         -6.3125   -2.6210   11.4718 C.ar        1 ROC      -0.0314
      7 C5         -6.6386   -3.9330   13.5345 C.ar        1 ROC      -0.0444
      8 C6         -6.1029   -4.4706   14.7191 C.ar        1 ROC      -0.0546
      9 C7         -4.7550   -4.2402   15.0558 C.ar        1 ROC      -0.0545
     10 C8         -3.9344   -3.4736   14.2049 C.ar        1 ROC      -0.0370
     11 C4A        -5.8221   -3.1720   12.6711 C.ar        1 ROC       0.0097
     12 C8A        -4.4620   -2.9460   13.0094 C.ar        1 ROC       0.0527
     13 N          -3.5324   -0.5192    9.0048 N.am        1 ROC      -0.2600
     14 CA         -2.8097    0.3664    8.1279 C.3         1 ROC       0.1473
     15 C1         -3.5582    1.6156    7.9484 C.2         1 ROC       0.2045
     16 O1         -4.6525    1.7508    8.4910 O.2         1 ROC      -0.3943
     17 CB         -2.5636   -0.4046    6.7855 C.3         1 ROC       0.0773
     18 CG         -1.3121   -0.0841    6.1322 C.2         1 ROC       0.1780
     19 OD1        -1.2802    0.6730    5.1713 O.2         1 ROC      -0.3970
     20 ND2        -0.1840   -0.6564    6.5136 N.am        1 ROC      -0.3007
     21 C9         -3.1781    4.8586    8.3372 C.3         1 ROC       0.1194
     22 O2         -3.3754    4.1883    9.5845 O.3         1 ROC      -0.3840
     23 CA1        -3.5626    3.9665    7.0968 C.3         1 ROC       0.0823
     24 N2         -3.0378    2.6286    7.2572 N.am        1 ROC      -0.2772
     25 CB1        -5.0632    3.9955    6.6268 C.3         1 ROC       0.0066
     26 CG1        -5.2662    3.7823    5.1620 C.ar        1 ROC      -0.0408
     27 CD1        -4.7736    4.7274    4.2301 C.ar        1 ROC      -0.0603
     28 CD2        -6.0502    2.7057    4.6767 C.ar        1 ROC      -0.0603
     29 CE1        -5.0756    4.6165    2.8587 C.ar        1 ROC      -0.0686
     30 CE2        -6.3526    2.5944    3.3068 C.ar        1 ROC      -0.0686
     31 CZ         -5.8739    3.5537    2.3965 C.ar        1 ROC      -0.0687
     32 N11        -3.8319    7.1506    7.2827 N.4         1 ROC       0.2562
     33 CM         -3.8921    6.2345    8.4780 C.3         1 ROC      -0.0008
     34 C21        -2.4607    7.6216    6.8470 C.3         1 ROC       0.0688
     35 CC         -1.5965    8.2717    7.8305 C.2         1 ROC       0.2251
     36 O3         -2.0948    8.9003    8.7561 O.2         1 ROC      -0.3909
     37 C31        -2.5705    8.4487    5.5216 C.3         1 ROC       0.0113
     38 C3A        -3.6807    9.5440    5.5021 C.3         1 ROC      -0.0261
     39 C41        -3.2999   10.8576    6.2551 C.3         1 ROC      -0.0494
     40 C51        -4.4384   11.9092    6.1987 C.3         1 ROC      -0.0528
     41 C61        -5.7667   11.3384    6.7567 C.3         1 ROC      -0.0526
     42 C71        -6.1689   10.0303    6.0237 C.3         1 ROC      -0.0451
     43 C7A        -5.0362    8.9550    6.0074 C.3         1 ROC       0.0024
     44 C81        -4.8587    8.2384    7.3759 C.3         1 ROC      -0.0266
     45 N3         -0.2702    8.1792    7.7022 N.am        1 ROC      -0.2771
     46 CD          0.7964    8.6435    8.5632 C.3         1 ROC       0.0448
     47 C11         1.2923    7.4212    9.3948 C.3         1 ROC      -0.0396
     48 C22         0.4287    9.8125    9.5351 C.3         1 ROC      -0.0396
     49 C32         1.9366    9.1449    7.6207 C.3         1 ROC      -0.0396
     50 H1         -5.8586   -1.4787    9.7862 H           1 ROC       0.0729
     51 H2         -7.2901   -2.7523   11.2007 H           1 ROC       0.0774
     52 H3         -7.6202   -4.1068   13.3052 H           1 ROC       0.0657
     53 H4         -6.6976   -5.0263   15.3374 H           1 ROC       0.0652
     54 H5         -4.3654   -4.6353   15.9151 H           1 ROC       0.0657
     55 H6         -2.9561   -3.3090   14.4594 H           1 ROC       0.0653
     56 H7         -4.3947   -0.7981    8.6634 H           1 ROC       0.1882
     57 H8         -1.8490    0.6292    8.5808 H           1 ROC       0.0826
     58 H9         -3.4035   -0.2275    6.1012 H           1 ROC       0.0551
     59 H10        -2.5516   -1.4823    6.9727 H           1 ROC       0.0551
     60 H11         0.6396   -0.4679    6.0366 H           1 ROC       0.1814
     61 H12        -0.1829   -1.2921    7.2525 H           1 ROC       0.1814
     62 H13        -2.1039    5.0661    8.2796 H           1 ROC       0.0672
     63 H14        -2.6736    3.5061    9.6362 H           1 ROC       0.2101
     64 H15        -2.9782    4.3892    6.2741 H           1 ROC       0.0606
     65 H16        -2.1525    2.4768    6.8882 H           1 ROC       0.1857
     66 H17        -5.5170    4.9595    6.8509 H           1 ROC       0.0449
     67 H18        -5.6435    3.2729    7.2014 H           1 ROC       0.0449
     68 H19        -4.2168    5.5263    4.5457 H           1 ROC       0.0557
     69 H20        -6.4205    2.0033    5.3235 H           1 ROC       0.0557
     70 H21        -4.7367    5.3249    2.2042 H           1 ROC       0.0599
     71 H22        -6.9301    1.8196    2.9701 H           1 ROC       0.0599
     72 H23        -6.1106    3.4858    1.4037 H           1 ROC       0.0559
     73 H24        -4.1509    6.5810    6.5002 H           1 ROC       0.2057
     74 H25        -3.4965    6.7470    9.3593 H           1 ROC       0.0841
     75 H26        -4.9377    6.0073    8.7169 H           1 ROC       0.0841
     76 H27        -1.9286    6.7047    6.5651 H           1 ROC       0.1100
     77 H28        -2.8062    7.7462    4.7189 H           1 ROC       0.0348
     78 H29        -1.6111    8.8972    5.2602 H           1 ROC       0.0348
     79 H30        -3.8222    9.8210    4.4526 H           1 ROC       0.0309
     80 H31        -2.3978   11.2819    5.8127 H           1 ROC       0.0268
     81 H32        -3.0763   10.6452    7.3006 H           1 ROC       0.0268
     82 H33        -4.5939   12.2303    5.1642 H           1 ROC       0.0265
     83 H34        -4.1502   12.7857    6.7830 H           1 ROC       0.0265
     84 H35        -6.5626   12.0781    6.6239 H           1 ROC       0.0265
     85 H36        -5.6616   11.1434    7.8273 H           1 ROC       0.0265
     86 H37        -6.4266   10.2806    4.9891 H           1 ROC       0.0270
     87 H38        -7.0676    9.6159    6.4900 H           1 ROC       0.0270
     88 H39        -5.3512    8.1843    5.2928 H           1 ROC       0.0355
     89 H40        -4.5949    8.9478    8.1625 H           1 ROC       0.0818
     90 H41        -5.8339    7.8122    7.6385 H           1 ROC       0.0818
     91 H42         0.0188    7.6068    6.9654 H           1 ROC       0.1859
     92 H43         2.1607    7.6897    9.9993 H           1 ROC       0.0254
     93 H44         1.5697    6.5920    8.7418 H           1 ROC       0.0254
     94 H45         0.5013    7.0756   10.0638 H           1 ROC       0.0254
     95 H46         1.3226   10.1967   10.0352 H           1 ROC       0.0254
     96 H47        -0.2536    9.4807   10.3166 H           1 ROC       0.0254
     97 H48        -0.0361   10.6331    8.9898 H           1 ROC       0.0254
     98 H49         2.8329    9.4018    8.1896 H           1 ROC       0.0254
     99 H50         1.6149   10.0358    7.0747 H           1 ROC       0.0254
    100 H51         2.2090    8.3824    6.8869 H           1 ROC       0.0254
@<TRIPOS>BOND
     1     1     2   2
     2     1     4   1
     3    13     1  am
     4     4     3  ar
     5     3    12  ar
     6     4     5  ar
     7     5     6  ar
     8     6    11  ar
     9     7     8  ar
    10    11     7  ar
    11     9     8  ar
    12    10     9  ar
    13    12    10  ar
    14    12    11  ar
    15    14    13   1
    16    15    14   1
    17    14    17   1
    18    15    16   2
    19    24    15  am
    20    17    18   1
    21    18    19   2
    22    18    20  am
    23    21    22   1
    24    23    21   1
    25    21    33   1
    26    23    24   1
    27    23    25   1
    28    25    26   1
    29    26    27  ar
    30    26    28  ar
    31    27    29  ar
    32    28    30  ar
    33    29    31  ar
    34    30    31  ar
    35    33    32   1
    36    32    34   1
    37    32    44   1
    38    34    35   1
    39    34    37   1
    40    35    36   2
    41    35    45  am
    42    37    38   1
    43    38    39   1
    44    38    43   1
    45    39    40   1
    46    40    41   1
    47    41    42   1
    48    42    43   1
    49    43    44   1
    50    45    46   1
    51    46    47   1
    52    46    48   1
    53    46    49   1
    54     5    50   1
    55     6    51   1
    56     7    52   1
    57     8    53   1
    58     9    54   1
    59    10    55   1
    60    13    56   1
    61    14    57   1
    62    17    58   1
    63    17    59   1
    64    20    60   1
    65    20    61   1
    66    21    62   1
    67    22    63   1
    68    23    64   1
    69    24    65   1
    70    25    66   1
    71    25    67   1
    72    27    68   1
    73    28    69   1
    74    29    70   1
    75    30    71   1
    76    31    72   1
    77    32    73   1
    78    33    74   1
    79    33    75   1
    80    34    76   1
    81    37    77   1
    82    37    78   1
    83    38    79   1
    84    39    80   1
    85    39    81   1
    86    40    82   1
    87    40    83   1
    88    41    84   1
    89    41    85   1
    90    42    86   1
    91    42    87   1
    92    43    88   1
    93    44    89   1
    94    44    90   1
    95    45    91   1
    96    47    92   1
    97    47    93   1
    98    47    94   1
    99    48    95   1
   100    48    96   1
   101    48    97   1
   102    49    98   1
   103    49    99   1
   104    49   100   1
@<TRIPOS>SUBSTRUCTURE
     1  ROC      1

