@<TRIPOS>MOLECULE
3pww_ligand_037
   100   104
SMALL
GAST_HUCK
****
This file was generated by PARSER (from files_GN.cpp)

@<TRIPOS>ATOM
      1 C          -2.4549    2.7833   11.0072 C.2         1 ROC       0.2293
      2 O          -3.1251    3.7163   11.4239 O.2         1 ROC      -0.3762
      3 N1         -4.2395    1.3070   11.5070 N.ar        1 ROC      -0.2737
      4 C2         -2.9230    1.4865   11.2098 C.ar        1 ROC       0.1219
      5 C3         -2.0999    0.3393   11.1323 C.ar        1 ROC      -0.0136
      6 C4         -2.6389   -0.9321   11.3984 C.ar        1 ROC      -0.0314
      7 C5         -4.6072   -2.3275   11.9505 C.ar        1 ROC      -0.0444
      8 C6         -5.9832   -2.4210   12.2013 C.ar        1 ROC      -0.0546
      9 C7         -6.7787   -1.2560   12.2312 C.ar        1 ROC      -0.0545
     10 C8         -6.1892    0.0040   12.0102 C.ar        1 ROC      -0.0370
     11 C4A        -4.0090   -1.0697   11.6997 C.ar        1 ROC       0.0097
     12 C8A        -4.8122    0.0963   11.7448 C.ar        1 ROC       0.0527
     13 N          -1.3234    3.0255   10.3468 N.am        1 ROC      -0.2600
     14 CA         -0.7298    4.3180   10.1055 C.3         1 ROC       0.1473
     15 C1         -1.6370    5.1484    9.3134 C.2         1 ROC       0.2045
     16 O1         -1.9777    6.2345    9.7771 O.2         1 ROC      -0.3943
     17 CB          0.6648    4.1529    9.4190 C.3         1 ROC       0.0773
     18 CG          1.5692    5.2729    9.6279 C.2         1 ROC       0.1780
     19 OD1         1.2370    6.4068    9.3202 O.2         1 ROC      -0.3970
     20 ND2         2.7941    5.0879   10.0706 N.am        1 ROC      -0.3007
     21 C9         -4.3399    4.2396    7.1720 C.3         1 ROC       0.1194
     22 O2         -4.6299    3.6205    8.4257 O.3         1 ROC      -0.3840
     23 CA1        -3.1977    5.3022    7.3945 C.3         1 ROC       0.0823
     24 N2         -2.1383    4.6977    8.1687 N.am        1 ROC      -0.2772
     25 CB1        -2.5722    5.9694    6.1204 C.3         1 ROC       0.0066
     26 CG1        -3.1532    7.2672    5.6473 C.ar        1 ROC      -0.0408
     27 CD1        -4.5457    7.5121    5.6091 C.ar        1 ROC      -0.0603
     28 CD2        -2.2886    8.2813    5.1564 C.ar        1 ROC      -0.0603
     29 CE1        -5.0575    8.7402    5.1470 C.ar        1 ROC      -0.0686
     30 CE2        -2.7963    9.4949    4.6602 C.ar        1 ROC      -0.0686
     31 CZ         -4.1842    9.7316    4.6673 C.ar        1 ROC      -0.0687
     32 N11        -4.9248    1.9285    5.9481 N.4         1 ROC       0.2562
     33 CM         -4.0725    3.1628    6.0699 C.3         1 ROC      -0.0008
     34 C21        -6.3461    2.1101    5.4740 C.3         1 ROC       0.0688
     35 CC         -7.2370    2.9289    6.3032 C.2         1 ROC       0.2251
     36 O3         -7.2866    2.7271    7.5059 O.2         1 ROC      -0.3909
     37 C31        -6.9840    0.7272    5.0900 C.3         1 ROC       0.0113
     38 C3A        -6.7317   -0.4549    6.0791 C.3         1 ROC      -0.0261
     39 C41        -7.7381   -0.5104    7.2708 C.3         1 ROC      -0.0494
     40 C51        -7.4329   -1.6903    8.2330 C.3         1 ROC      -0.0528
     41 C61        -5.9655   -1.6453    8.7236 C.3         1 ROC      -0.0526
     42 C71        -4.9586   -1.6302    7.5496 C.3         1 ROC      -0.0451
     43 C7A        -5.2348   -0.4807    6.5344 C.3         1 ROC       0.0024
     44 C81        -4.7548    0.9163    7.0374 C.3         1 ROC      -0.0266
     45 N3         -7.9867    3.8734    5.7428 N.am        1 ROC      -0.2771
     46 CD         -8.9574    4.7833    6.3179 C.3         1 ROC       0.0448
     47 C11        -8.7424    5.1761    7.8174 C.3         1 ROC      -0.0396
     48 C22       -10.3678    4.1442    6.1465 C.3         1 ROC      -0.0396
     49 C32        -8.8745    6.0835    5.4605 C.3         1 ROC      -0.0396
     50 H1         -1.1031    0.4144   10.9194 H           1 ROC       0.0729
     51 H2         -2.0288   -1.7511   11.3580 H           1 ROC       0.0774
     52 H3         -4.0425   -3.1783   11.9265 H           1 ROC       0.0657
     53 H4         -6.4175   -3.3357   12.3544 H           1 ROC       0.0652
     54 H5         -7.7812   -1.3275   12.4051 H           1 ROC       0.0657
     55 H6         -6.7732    0.8447   12.0286 H           1 ROC       0.0653
     56 H7         -0.8419    2.2603    9.9965 H           1 ROC       0.1882
     57 H8         -0.5632    4.7731   11.0911 H           1 ROC       0.0826
     58 H9          0.5378    4.0207    8.3436 H           1 ROC       0.0551
     59 H10         1.1337    3.2387    9.7964 H           1 ROC       0.0551
     60 H11         3.3998    5.8424   10.1490 H           1 ROC       0.1814
     61 H12         3.1111    4.1925   10.2664 H           1 ROC       0.1814
     62 H13        -5.2437    4.7741    6.8885 H           1 ROC       0.0672
     63 H14        -4.8945    4.3530    9.0195 H           1 ROC       0.2101
     64 H15        -3.6554    6.1057    7.9852 H           1 ROC       0.0606
     65 H16        -1.7698    3.8609    7.8275 H           1 ROC       0.1857
     66 H17        -2.5714    5.2807    5.2777 H           1 ROC       0.0449
     67 H18        -1.5159    6.1466    6.3406 H           1 ROC       0.0449
     68 H19        -5.2111    6.8067    5.9226 H           1 ROC       0.0557
     69 H20        -1.2724    8.1358    5.1383 H           1 ROC       0.0557
     70 H21        -6.0662    8.9089    5.1500 H           1 ROC       0.0599
     71 H22        -2.1600   10.2048    4.2897 H           1 ROC       0.0599
     72 H23        -4.5536   10.6171    4.3130 H           1 ROC       0.0559
     73 H24        -4.4913    1.4633    5.1467 H           1 ROC       0.2057
     74 H25        -3.0279    2.8451    6.1502 H           1 ROC       0.0841
     75 H26        -4.1548    3.6641    5.1014 H           1 ROC       0.0841
     76 H27        -6.2474    2.6341    4.5160 H           1 ROC       0.1100
     77 H28        -6.5505    0.4259    4.1262 H           1 ROC       0.0348
     78 H29        -8.0595    0.8368    4.9109 H           1 ROC       0.0348
     79 H30        -6.9054   -1.3769    5.5087 H           1 ROC       0.0309
     80 H31        -8.7539   -0.6271    6.8837 H           1 ROC       0.0268
     81 H32        -7.7043    0.4104    7.8440 H           1 ROC       0.0268
     82 H33        -7.6198   -2.6376    7.7192 H           1 ROC       0.0265
     83 H34        -8.1029   -1.6368    9.0970 H           1 ROC       0.0265
     84 H35        -5.7705   -2.5145    9.3551 H           1 ROC       0.0265
     85 H36        -5.8230   -0.7479    9.3216 H           1 ROC       0.0265
     86 H37        -5.0235   -2.5881    7.0216 H           1 ROC       0.0270
     87 H38        -3.9405   -1.5463    7.9425 H           1 ROC       0.0270
     88 H39        -4.6293   -0.7047    5.6473 H           1 ROC       0.0355
     89 H40        -5.2954    1.2065    7.9373 H           1 ROC       0.0818
     90 H41        -3.6959    0.8335    7.3012 H           1 ROC       0.0818
     91 H42        -7.9167    3.9227    4.7741 H           1 ROC       0.1859
     92 H43        -9.4004    6.0000    8.0999 H           1 ROC       0.0254
     93 H44        -7.7116    5.4876    7.9911 H           1 ROC       0.0254
     94 H45        -8.9706    4.3413    8.4820 H           1 ROC       0.0254
     95 H46       -11.1469    4.8212    6.5069 H           1 ROC       0.0254
     96 H47       -10.4362    3.2116    6.7121 H           1 ROC       0.0254
     97 H48       -10.5694    3.9199    5.0961 H           1 ROC       0.0254
     98 H49        -9.6158    6.8167    5.7852 H           1 ROC       0.0254
     99 H50        -9.0563    5.8681    4.4049 H           1 ROC       0.0254
    100 H51        -7.8841    6.5353    5.5493 H           1 ROC       0.0254
@<TRIPOS>BOND
     1     1     2   2
     2     1     4   1
     3    13     1  am
     4     4     3  ar
     5     3    12  ar
     6     4     5  ar
     7     5     6  ar
     8     6    11  ar
     9     7     8  ar
    10    11     7  ar
    11     9     8  ar
    12    10     9  ar
    13    12    10  ar
    14    12    11  ar
    15    14    13   1
    16    15    14   1
    17    14    17   1
    18    15    16   2
    19    24    15  am
    20    17    18   1
    21    18    19   2
    22    18    20  am
    23    21    22   1
    24    23    21   1
    25    21    33   1
    26    23    24   1
    27    23    25   1
    28    25    26   1
    29    26    27  ar
    30    26    28  ar
    31    27    29  ar
    32    28    30  ar
    33    29    31  ar
    34    30    31  ar
    35    33    32   1
    36    32    34   1
    37    32    44   1
    38    34    35   1
    39    34    37   1
    40    35    36   2
    41    35    45  am
    42    37    38   1
    43    38    39   1
    44    38    43   1
    45    39    40   1
    46    40    41   1
    47    41    42   1
    48    42    43   1
    49    43    44   1
    50    45    46   1
    51    46    47   1
    52    46    48   1
    53    46    49   1
    54     5    50   1
    55     6    51   1
    56     7    52   1
    57     8    53   1
    58     9    54   1
    59    10    55   1
    60    13    56   1
    61    14    57   1
    62    17    58   1
    63    17    59   1
    64    20    60   1
    65    20    61   1
    66    21    62   1
    67    22    63   1
    68    23    64   1
    69    24    65   1
    70    25    66   1
    71    25    67   1
    72    27    68   1
    73    28    69   1
    74    29    70   1
    75    30    71   1
    76    31    72   1
    77    32    73   1
    78    33    74   1
    79    33    75   1
    80    34    76   1
    81    37    77   1
    82    37    78   1
    83    38    79   1
    84    39    80   1
    85    39    81   1
    86    40    82   1
    87    40    83   1
    88    41    84   1
    89    41    85   1
    90    42    86   1
    91    42    87   1
    92    43    88   1
    93    44    89   1
    94    44    90   1
    95    45    91   1
    96    47    92   1
    97    47    93   1
    98    47    94   1
    99    48    95   1
   100    48    96   1
   101    48    97   1
   102    49    98   1
   103    49    99   1
   104    49   100   1
@<TRIPOS>SUBSTRUCTURE
     1  ROC      1

