@<TRIPOS>MOLECULE
3pww_ligand_083
   100   104
SMALL
GAST_HUCK
****
This file was generated by PARSER (from files_GN.cpp)

@<TRIPOS>ATOM
      1 C           0.0935    9.8120   10.0852 C.2         1 ROC       0.2293
      2 O           0.2289    9.6384   11.2891 O.2         1 ROC      -0.3762
      3 N1         -0.6609   12.0409   10.4621 N.ar        1 ROC      -0.2737
      4 C2         -0.5939   10.9423    9.6525 C.ar        1 ROC       0.1219
      5 C3         -1.2634   11.0015    8.4034 C.ar        1 ROC      -0.0136
      6 C4         -1.9751   12.1546    8.0393 C.ar        1 ROC      -0.0314
      7 C5         -2.6758   14.4605    8.5512 C.ar        1 ROC      -0.0444
      8 C6         -2.6579   15.5629    9.4257 C.ar        1 ROC      -0.0546
      9 C7         -1.9805   15.4765   10.6563 C.ar        1 ROC      -0.0545
     10 C8         -1.3183   14.2886   11.0178 C.ar        1 ROC      -0.0370
     11 C4A        -2.0055   13.2705    8.8974 C.ar        1 ROC       0.0097
     12 C8A        -1.3179   13.1842   10.1377 C.ar        1 ROC       0.0527
     13 N           0.5677    8.9197    9.2154 N.am        1 ROC      -0.2600
     14 CA          1.1111    7.6063    9.4408 C.3         1 ROC       0.1473
     15 C1          0.0636    6.6909    9.8920 C.2         1 ROC       0.2045
     16 O1         -0.4617    6.8761   10.9840 O.2         1 ROC      -0.3943
     17 CB          2.4222    7.5379   10.2984 C.3         1 ROC       0.0773
     18 CG          2.7740    6.1993   10.7476 C.2         1 ROC       0.1780
     19 OD1         2.8149    5.9398   11.9464 O.2         1 ROC      -0.3970
     20 ND2         2.9790    5.2091    9.9005 N.am        1 ROC      -0.3007
     21 C9         -2.5254    4.8355    9.2200 C.3         1 ROC       0.1194
     22 O2         -3.1526    5.4955   10.3317 O.3         1 ROC      -0.3840
     23 CA1        -1.0212    4.4763    9.5073 C.3         1 ROC       0.0823
     24 N2         -0.1626    5.5836    9.2038 N.am        1 ROC      -0.2772
     25 CB1        -0.6965    3.8224   10.8954 C.3         1 ROC       0.0066
     26 CG1        -0.7668    2.3368   10.9273 C.ar        1 ROC      -0.0408
     27 CD1         0.1622    1.5706   10.1872 C.ar        1 ROC      -0.0603
     28 CD2        -1.7153    1.6543   11.7310 C.ar        1 ROC      -0.0603
     29 CE1         0.1480    0.1652   10.2429 C.ar        1 ROC      -0.0686
     30 CE2        -1.7351    0.2453   11.7835 C.ar        1 ROC      -0.0686
     31 CZ         -0.8061   -0.5007   11.0376 C.ar        1 ROC      -0.0687
     32 N11        -4.6053    3.9327    7.9360 N.4         1 ROC       0.2562
     33 CM         -3.3750    3.6157    8.7498 C.3         1 ROC      -0.0008
     34 C21        -5.6256    2.8090    7.9064 C.3         1 ROC       0.0688
     35 CC         -5.1760    1.4863    7.4539 C.2         1 ROC       0.2251
     36 O3         -4.1432    1.3728    6.8072 O.2         1 ROC      -0.3909
     37 C31        -6.9235    3.2744    7.1675 C.3         1 ROC       0.0113
     38 C3A        -6.6929    3.9343    5.7747 C.3         1 ROC      -0.0261
     39 C41        -6.4016    2.9106    4.6329 C.3         1 ROC      -0.0494
     40 C51        -6.1785    3.6186    3.2697 C.3         1 ROC      -0.0528
     41 C61        -5.0448    4.6735    3.3569 C.3         1 ROC      -0.0526
     42 C71        -5.3041    5.6989    4.4951 C.3         1 ROC      -0.0451
     43 C7A        -5.5914    5.0384    5.8835 C.3         1 ROC       0.0024
     44 C81        -4.3077    4.4897    6.5718 C.3         1 ROC      -0.0266
     45 N3         -5.8985    0.4115    7.7647 N.am        1 ROC      -0.2771
     46 CD         -5.6508   -0.9733    7.4349 C.3         1 ROC       0.0448
     47 C11        -5.6865   -1.1994    5.8893 C.3         1 ROC      -0.0396
     48 C22        -6.7989   -1.8075    8.0812 C.3         1 ROC      -0.0396
     49 C32        -4.2943   -1.4685    8.0292 C.3         1 ROC      -0.0396
     50 H1         -1.2671   10.2025    7.7627 H           1 ROC       0.0729
     51 H2         -2.4684   12.1763    7.1403 H           1 ROC       0.0774
     52 H3         -3.1749   14.5355    7.6595 H           1 ROC       0.0657
     53 H4         -3.1356   16.4267    9.1608 H           1 ROC       0.0652
     54 H5         -1.9637   16.2827   11.2834 H           1 ROC       0.0657
     55 H6         -0.8258   14.2364   11.9115 H           1 ROC       0.0653
     56 H7          0.4916    9.1655    8.2785 H           1 ROC       0.1882
     57 H8          1.4227    7.2949    8.4376 H           1 ROC       0.0826
     58 H9          2.3311    8.1984   11.1649 H           1 ROC       0.0551
     59 H10         3.2510    7.9227    9.7013 H           1 ROC       0.0551
     60 H11         3.1440    4.3060   10.2189 H           1 ROC       0.1814
     61 H12         2.9168    5.3718    8.9482 H           1 ROC       0.1814
     62 H13        -2.5099    5.5736    8.4179 H           1 ROC       0.0672
     63 H14        -3.3987    4.7856   10.9649 H           1 ROC       0.2101
     64 H15        -0.7220    3.7531    8.7455 H           1 ROC       0.0606
     65 H16         0.3391    5.5057    8.3749 H           1 ROC       0.1857
     66 H17        -1.3516    4.2576   11.6548 H           1 ROC       0.0449
     67 H18         0.3240    4.0963   11.1856 H           1 ROC       0.0449
     68 H19         0.8688    2.0307    9.6118 H           1 ROC       0.0557
     69 H20        -2.4040    2.1757   12.2811 H           1 ROC       0.0557
     70 H21         0.8350   -0.3704    9.7073 H           1 ROC       0.0599
     71 H22        -2.4273   -0.2393   12.3653 H           1 ROC       0.0599
     72 H23        -0.8198   -1.5213   11.0689 H           1 ROC       0.0559
     73 H24        -5.0713    4.6903    8.4416 H           1 ROC       0.2057
     74 H25        -3.6729    3.0796    9.6559 H           1 ROC       0.0841
     75 H26        -2.7325    2.9396    8.1717 H           1 ROC       0.0841
     76 H27        -5.9250    2.6673    8.9545 H           1 ROC       0.1100
     77 H28        -7.4113    4.0213    7.8043 H           1 ROC       0.0348
     78 H29        -7.6365    2.4454    7.0630 H           1 ROC       0.0348
     79 H30        -7.6329    4.4323    5.5098 H           1 ROC       0.0309
     80 H31        -7.2448    2.2149    4.5304 H           1 ROC       0.0268
     81 H32        -5.5078    2.3233    4.8575 H           1 ROC       0.0268
     82 H33        -7.1080    4.1077    2.9539 H           1 ROC       0.0265
     83 H34        -5.9154    2.8718    2.5134 H           1 ROC       0.0265
     84 H35        -4.9778    5.2110    2.4027 H           1 ROC       0.0265
     85 H36        -4.0876    4.1688    3.5209 H           1 ROC       0.0265
     86 H37        -6.1695    6.3099    4.2144 H           1 ROC       0.0270
     87 H38        -4.4445    6.3704    4.5751 H           1 ROC       0.0270
     88 H39        -5.9812    5.8335    6.5302 H           1 ROC       0.0355
     89 H40        -3.8267    3.7389    5.9377 H           1 ROC       0.0818
     90 H41        -3.6153    5.3315    6.6518 H           1 ROC       0.0818
     91 H42        -6.6938    0.5826    8.2960 H           1 ROC       0.1859
     92 H43        -5.5313   -2.2534    5.6487 H           1 ROC       0.0254
     93 H44        -4.9072   -0.6248    5.3891 H           1 ROC       0.0254
     94 H45        -6.6498   -0.8908    5.4754 H           1 ROC       0.0254
     95 H46        -6.6955   -2.8669    7.8288 H           1 ROC       0.0254
     96 H47        -7.7734   -1.4614    7.7225 H           1 ROC       0.0254
     97 H48        -6.7794   -1.7080    9.1706 H           1 ROC       0.0254
     98 H49        -4.1947   -2.5471    7.9094 H           1 ROC       0.0254
     99 H50        -4.2400   -1.2366    9.0934 H           1 ROC       0.0254
    100 H51        -3.4410   -1.0019    7.5372 H           1 ROC       0.0254
@<TRIPOS>BOND
     1     1     2   2
     2     1     4   1
     3    13     1  am
     4     4     3  ar
     5     3    12  ar
     6     4     5  ar
     7     5     6  ar
     8     6    11  ar
     9     7     8  ar
    10    11     7  ar
    11     9     8  ar
    12    10     9  ar
    13    12    10  ar
    14    12    11  ar
    15    14    13   1
    16    15    14   1
    17    14    17   1
    18    15    16   2
    19    24    15  am
    20    17    18   1
    21    18    19   2
    22    18    20  am
    23    21    22   1
    24    23    21   1
    25    21    33   1
    26    23    24   1
    27    23    25   1
    28    25    26   1
    29    26    27  ar
    30    26    28  ar
    31    27    29  ar
    32    28    30  ar
    33    29    31  ar
    34    30    31  ar
    35    33    32   1
    36    32    34   1
    37    32    44   1
    38    34    35   1
    39    34    37   1
    40    35    36   2
    41    35    45  am
    42    37    38   1
    43    38    39   1
    44    38    43   1
    45    39    40   1
    46    40    41   1
    47    41    42   1
    48    42    43   1
    49    43    44   1
    50    45    46   1
    51    46    47   1
    52    46    48   1
    53    46    49   1
    54     5    50   1
    55     6    51   1
    56     7    52   1
    57     8    53   1
    58     9    54   1
    59    10    55   1
    60    13    56   1
    61    14    57   1
    62    17    58   1
    63    17    59   1
    64    20    60   1
    65    20    61   1
    66    21    62   1
    67    22    63   1
    68    23    64   1
    69    24    65   1
    70    25    66   1
    71    25    67   1
    72    27    68   1
    73    28    69   1
    74    29    70   1
    75    30    71   1
    76    31    72   1
    77    32    73   1
    78    33    74   1
    79    33    75   1
    80    34    76   1
    81    37    77   1
    82    37    78   1
    83    38    79   1
    84    39    80   1
    85    39    81   1
    86    40    82   1
    87    40    83   1
    88    41    84   1
    89    41    85   1
    90    42    86   1
    91    42    87   1
    92    43    88   1
    93    44    89   1
    94    44    90   1
    95    45    91   1
    96    47    92   1
    97    47    93   1
    98    47    94   1
    99    48    95   1
   100    48    96   1
   101    48    97   1
   102    49    98   1
   103    49    99   1
   104    49   100   1
@<TRIPOS>SUBSTRUCTURE
     1  ROC      1

