@<TRIPOS>MOLECULE
3pww_ligand_015
   100   104
SMALL
GAST_HUCK
****
This file was generated by PARSER (from files_GN.cpp)

@<TRIPOS>ATOM
      1 C          -2.0145    8.6411    7.1375 C.2         1 ROC       0.2293
      2 O          -2.3020    9.7119    7.6634 O.2         1 ROC      -0.3762
      3 N1         -4.1972    8.5648    6.2028 N.ar        1 ROC      -0.2737
      4 C2         -3.0030    7.9503    6.4396 C.ar        1 ROC       0.1219
      5 C3         -2.8451    6.6278    5.9571 C.ar        1 ROC      -0.0136
      6 C4         -3.8912    5.9978    5.2629 C.ar        1 ROC      -0.0314
      7 C5         -6.1931    6.0775    4.3601 C.ar        1 ROC      -0.0444
      8 C6         -7.3891    6.7977    4.1686 C.ar        1 ROC      -0.0546
      9 C7         -7.5073    8.1108    4.6565 C.ar        1 ROC      -0.0545
     10 C8         -6.4333    8.7118    5.3427 C.ar        1 ROC      -0.0370
     11 C4A        -5.1091    6.6715    5.0442 C.ar        1 ROC       0.0097
     12 C8A        -5.2344    7.9977    5.5381 C.ar        1 ROC       0.0527
     13 N          -0.7630    8.1917    7.2252 N.am        1 ROC      -0.2600
     14 CA          0.3604    8.7389    7.9372 C.3         1 ROC       0.1473
     15 C1          0.4814    8.1067    9.2511 C.2         1 ROC       0.2045
     16 O1         -0.1740    8.5426   10.1853 O.2         1 ROC      -0.3943
     17 CB          0.3784   10.3030    7.9767 C.3         1 ROC       0.0773
     18 CG          1.7081   10.8811    8.1192 C.2         1 ROC       0.1780
     19 OD1         1.9779   11.6297    9.0540 O.2         1 ROC      -0.3970
     20 ND2         2.6353   10.6785    7.2071 N.am        1 ROC      -0.3007
     21 C9          2.6850    6.2499   11.1391 C.3         1 ROC       0.1194
     22 O2          2.9703    5.1808   12.0431 O.3         1 ROC      -0.3840
     23 CA1         1.2618    6.1061   10.5100 C.3         1 ROC       0.0823
     24 N2          1.1884    6.9888    9.3757 N.am        1 ROC      -0.2772
     25 CB1         0.8856    4.6640   10.0046 C.3         1 ROC       0.0066
     26 CG1        -0.3377    4.1074   10.6480 C.ar        1 ROC      -0.0408
     27 CD1        -1.6059    4.6768   10.3717 C.ar        1 ROC      -0.0603
     28 CD2        -0.2663    3.0087   11.5374 C.ar        1 ROC      -0.0603
     29 CE1        -2.7721    4.1558   10.9678 C.ar        1 ROC      -0.0686
     30 CE2        -1.4328    2.4933   12.1391 C.ar        1 ROC      -0.0686
     31 CZ         -2.6833    3.0691   11.8531 C.ar        1 ROC      -0.0687
     32 N11         2.9460    7.5172   13.3782 N.4         1 ROC       0.2562
     33 CM          2.9207    7.6203   11.8692 C.3         1 ROC      -0.0008
     34 C21         1.7217    8.0108   14.1089 C.3         1 ROC       0.0688
     35 CC          1.3815    9.4313   13.9845 C.2         1 ROC       0.2251
     36 O3          2.1831   10.2226   13.4977 O.2         1 ROC      -0.3909
     37 C31         1.7893    7.5227   15.5973 C.3         1 ROC       0.0113
     38 C3A         3.1277    7.8295   16.3392 C.3         1 ROC      -0.0261
     39 C41         3.2576    9.3073   16.8261 C.3         1 ROC      -0.0494
     40 C51         4.6121    9.5554   17.5404 C.3         1 ROC      -0.0528
     41 C61         5.8154    9.1609   16.6440 C.3         1 ROC      -0.0526
     42 C71         5.7012    7.6921   16.1564 C.3         1 ROC      -0.0451
     43 C7A         4.3386    7.3747   15.4641 C.3         1 ROC       0.0024
     44 C81         4.2383    7.9344   14.0146 C.3         1 ROC      -0.0266
     45 N3          0.1772    9.8391   14.3647 N.am        1 ROC      -0.2771
     46 CD         -0.4450   11.1397   14.2656 C.3         1 ROC       0.0448
     47 C11        -1.6596   11.1215   15.2478 C.3         1 ROC      -0.0396
     48 C22        -0.9635   11.3575   12.8130 C.3         1 ROC      -0.0396
     49 C32         0.5146   12.2958   14.6978 C.3         1 ROC      -0.0396
     50 H1         -1.9852    6.1050    6.1204 H           1 ROC       0.0729
     51 H2         -3.7582    5.0422    4.9275 H           1 ROC       0.0774
     52 H3         -6.1232    5.1217    4.0023 H           1 ROC       0.0657
     53 H4         -8.1725    6.3631    3.6736 H           1 ROC       0.0652
     54 H5         -8.3786    8.6298    4.5140 H           1 ROC       0.0657
     55 H6         -6.5325    9.6671    5.6930 H           1 ROC       0.0653
     56 H7         -0.5671    7.3568    6.7747 H           1 ROC       0.1882
     57 H8          1.2240    8.4372    7.3253 H           1 ROC       0.0826
     58 H9         -0.2617   10.6635    8.7865 H           1 ROC       0.0551
     59 H10        -0.0461   10.6896    7.0460 H           1 ROC       0.0551
     60 H11         3.5036   11.1152    7.2858 H           1 ROC       0.1814
     61 H12         2.4528   10.0978    6.4447 H           1 ROC       0.1814
     62 H13         3.4188    6.1632   10.3333 H           1 ROC       0.0672
     63 H14         3.1363    4.3826   11.5071 H           1 ROC       0.2101
     64 H15         0.5486    6.4118   11.2831 H           1 ROC       0.0606
     65 H16         1.6598    6.6872    8.5799 H           1 ROC       0.1857
     66 H17         1.7266    3.9842   10.1468 H           1 ROC       0.0449
     67 H18         0.7066    4.6581    8.9249 H           1 ROC       0.0449
     68 H19        -1.6866    5.4713    9.7309 H           1 ROC       0.0557
     69 H20         0.6335    2.5809   11.7647 H           1 ROC       0.0557
     70 H21        -3.6819    4.5781   10.7602 H           1 ROC       0.0599
     71 H22        -1.3690    1.7081   12.7897 H           1 ROC       0.0599
     72 H23        -3.5323    2.6964   12.2892 H           1 ROC       0.0559
     73 H24         2.9252    6.5183   13.5732 H           1 ROC       0.2057
     74 H25         2.1644    8.3417   11.5494 H           1 ROC       0.0841
     75 H26         3.8675    8.0303   11.5046 H           1 ROC       0.0841
     76 H27         0.8734    7.4773   13.6671 H           1 ROC       0.1100
     77 H28         1.6653    6.4356   15.5913 H           1 ROC       0.0348
     78 H29         0.9583    7.9134   16.1875 H           1 ROC       0.0348
     79 H30         3.1287    7.2142   17.2466 H           1 ROC       0.0309
     80 H31         2.4474    9.5343   17.5258 H           1 ROC       0.0268
     81 H32         3.1764   10.0013   15.9882 H           1 ROC       0.0268
     82 H33         4.6481    8.9714   18.4656 H           1 ROC       0.0265
     83 H34         4.6941   10.6132   17.8086 H           1 ROC       0.0265
     84 H35         6.7407    9.2839   17.2154 H           1 ROC       0.0265
     85 H36         5.8667    9.8319   15.7823 H           1 ROC       0.0265
     86 H37         5.8223    7.0335   17.0236 H           1 ROC       0.0270
     87 H38         6.5256    7.4749   15.4705 H           1 ROC       0.0270
     88 H39         4.2915    6.2810   15.3827 H           1 ROC       0.0355
     89 H40         4.3395    9.0205   14.0057 H           1 ROC       0.0818
     90 H41         5.0781    7.5169   13.4540 H           1 ROC       0.0818
     91 H42        -0.3903    9.1466   14.7322 H           1 ROC       0.1859
     92 H43        -2.2110   12.0660   15.2070 H           1 ROC       0.0254
     93 H44        -1.3218   10.9684   16.2783 H           1 ROC       0.0254
     94 H45        -2.3505   10.3123   14.9973 H           1 ROC       0.0254
     95 H46        -1.5023   12.3038   12.7333 H           1 ROC       0.0254
     96 H47        -1.6400   10.5495   12.5284 H           1 ROC       0.0254
     97 H48        -0.1348   11.3741   12.1040 H           1 ROC       0.0254
     98 H49        -0.0278   13.2457   14.7628 H           1 ROC       0.0254
     99 H50         1.3250   12.4298   13.9774 H           1 ROC       0.0254
    100 H51         0.9570   12.0840   15.6773 H           1 ROC       0.0254
@<TRIPOS>BOND
     1     1     2   2
     2     1     4   1
     3    13     1  am
     4     4     3  ar
     5     3    12  ar
     6     4     5  ar
     7     5     6  ar
     8     6    11  ar
     9     7     8  ar
    10    11     7  ar
    11     9     8  ar
    12    10     9  ar
    13    12    10  ar
    14    12    11  ar
    15    14    13   1
    16    15    14   1
    17    14    17   1
    18    15    16   2
    19    24    15  am
    20    17    18   1
    21    18    19   2
    22    18    20  am
    23    21    22   1
    24    23    21   1
    25    21    33   1
    26    23    24   1
    27    23    25   1
    28    25    26   1
    29    26    27  ar
    30    26    28  ar
    31    27    29  ar
    32    28    30  ar
    33    29    31  ar
    34    30    31  ar
    35    33    32   1
    36    32    34   1
    37    32    44   1
    38    34    35   1
    39    34    37   1
    40    35    36   2
    41    35    45  am
    42    37    38   1
    43    38    39   1
    44    38    43   1
    45    39    40   1
    46    40    41   1
    47    41    42   1
    48    42    43   1
    49    43    44   1
    50    45    46   1
    51    46    47   1
    52    46    48   1
    53    46    49   1
    54     5    50   1
    55     6    51   1
    56     7    52   1
    57     8    53   1
    58     9    54   1
    59    10    55   1
    60    13    56   1
    61    14    57   1
    62    17    58   1
    63    17    59   1
    64    20    60   1
    65    20    61   1
    66    21    62   1
    67    22    63   1
    68    23    64   1
    69    24    65   1
    70    25    66   1
    71    25    67   1
    72    27    68   1
    73    28    69   1
    74    29    70   1
    75    30    71   1
    76    31    72   1
    77    32    73   1
    78    33    74   1
    79    33    75   1
    80    34    76   1
    81    37    77   1
    82    37    78   1
    83    38    79   1
    84    39    80   1
    85    39    81   1
    86    40    82   1
    87    40    83   1
    88    41    84   1
    89    41    85   1
    90    42    86   1
    91    42    87   1
    92    43    88   1
    93    44    89   1
    94    44    90   1
    95    45    91   1
    96    47    92   1
    97    47    93   1
    98    47    94   1
    99    48    95   1
   100    48    96   1
   101    48    97   1
   102    49    98   1
   103    49    99   1
   104    49   100   1
@<TRIPOS>SUBSTRUCTURE
     1  ROC      1

