@<TRIPOS>MOLECULE
3pww_ligand_009
   100   104
SMALL
GAST_HUCK
****
This file was generated by PARSER (from files_GN.cpp)

@<TRIPOS>ATOM
      1 C          -6.5479    1.1420    5.3995 C.2         1 ROC       0.2293
      2 O          -7.0895    0.6458    6.3839 O.2         1 ROC      -0.3762
      3 N1         -8.3576    0.3520    4.0746 N.ar        1 ROC      -0.2737
      4 C2         -7.2548    1.1496    4.2004 C.ar        1 ROC       0.1219
      5 C3         -6.8898    1.9452    3.0859 C.ar        1 ROC      -0.0136
      6 C4         -7.6522    1.8926    1.9035 C.ar        1 ROC      -0.0314
      7 C5         -9.5578    0.9410    0.6468 C.ar        1 ROC      -0.0444
      8 C6        -10.6570    0.0626    0.6073 C.ar        1 ROC      -0.0546
      9 C7        -10.9807   -0.7178    1.7323 C.ar        1 ROC      -0.0545
     10 C8        -10.2147   -0.6184    2.9062 C.ar        1 ROC      -0.0370
     11 C4A        -8.7756    1.0459    1.8183 C.ar        1 ROC       0.0097
     12 C8A        -9.1157    0.2605    2.9521 C.ar        1 ROC       0.0527
     13 N          -5.2856    1.5703    5.4806 N.am        1 ROC      -0.2600
     14 CA         -4.4215    1.5507    6.6323 C.3         1 ROC       0.1473
     15 C1         -3.7086    2.8277    6.7143 C.2         1 ROC       0.2045
     16 O1         -3.0480    3.1852    5.7477 O.2         1 ROC      -0.3943
     17 CB         -3.5504    0.2456    6.6265 C.3         1 ROC       0.0773
     18 CG         -2.1703    0.3255    6.1855 C.2         1 ROC       0.1780
     19 OD1        -1.8604    0.9860    5.2056 O.2         1 ROC      -0.3970
     20 ND2        -1.2423   -0.4463    6.7138 N.am        1 ROC      -0.3007
     21 C9         -2.1526    4.9578    9.0000 C.3         1 ROC       0.1194
     22 O2         -2.4012    5.7302   10.1741 O.3         1 ROC      -0.3840
     23 CA1        -3.3618    4.9622    7.9739 C.3         1 ROC       0.0823
     24 N2         -3.8474    3.6166    7.7789 N.am        1 ROC      -0.2772
     25 CB1        -4.5968    5.8672    8.3406 C.3         1 ROC       0.0066
     26 CG1        -5.1762    6.6607    7.2174 C.ar        1 ROC      -0.0408
     27 CD1        -5.4521    8.0489    7.3734 C.ar        1 ROC      -0.0603
     28 CD2        -5.5089    6.0593    5.9753 C.ar        1 ROC      -0.0603
     29 CE1        -6.0159    8.8006    6.3349 C.ar        1 ROC      -0.0686
     30 CE2        -6.0553    6.8155    4.9243 C.ar        1 ROC      -0.0686
     31 CZ         -6.3175    8.1909    5.1014 C.ar        1 ROC      -0.0687
     32 N11         0.4354    5.7446    9.0849 N.4         1 ROC       0.2562
     33 CM         -0.8082    5.3822    8.3179 C.3         1 ROC      -0.0008
     34 C21         1.3235    4.6430    9.6018 C.3         1 ROC       0.0688
     35 CC          0.7162    3.6900   10.5462 C.2         1 ROC       0.2251
     36 O3          1.0661    3.6894   11.7185 O.2         1 ROC      -0.3909
     37 C31         2.7118    5.2655   10.0393 C.3         1 ROC       0.0113
     38 C3A         2.6832    6.6157   10.8312 C.3         1 ROC      -0.0261
     39 C41         2.4901    6.4533   12.3719 C.3         1 ROC      -0.0494
     40 C51         2.4636    7.8128   13.1169 C.3         1 ROC      -0.0528
     41 C61         1.3545    8.7346   12.5371 C.3         1 ROC      -0.0526
     42 C71         1.5525    8.9415   11.0124 C.3         1 ROC      -0.0451
     43 C7A         1.6416    7.6041   10.2109 C.3         1 ROC       0.0024
     44 C81         0.2691    6.8957   10.0300 C.3         1 ROC      -0.0266
     45 N3         -0.0450    2.7092   10.0629 N.am        1 ROC      -0.2771
     46 CD         -0.6009    1.5567   10.7261 C.3         1 ROC       0.0448
     47 C11        -1.8422    1.1265    9.8851 C.3         1 ROC      -0.0396
     48 C22        -1.0699    1.8294   12.1890 C.3         1 ROC      -0.0396
     49 C32         0.4587    0.4203   10.6524 C.3         1 ROC      -0.0396
     50 H1         -6.0862    2.5816    3.1197 H           1 ROC       0.0729
     51 H2         -7.3743    2.4642    1.1016 H           1 ROC       0.0774
     52 H3         -9.3334    1.4982   -0.1792 H           1 ROC       0.0657
     53 H4        -11.2208   -0.0117   -0.2426 H           1 ROC       0.0652
     54 H5        -11.7759   -1.3591    1.6970 H           1 ROC       0.0657
     55 H6        -10.4531   -1.1900    3.7234 H           1 ROC       0.0653
     56 H7         -4.8756    1.8463    4.6474 H           1 ROC       0.1882
     57 H8         -5.0497    1.4676    7.5253 H           1 ROC       0.0826
     58 H9         -4.0386   -0.4987    5.9883 H           1 ROC       0.0551
     59 H10        -3.5722   -0.1629    7.6392 H           1 ROC       0.0551
     60 H11        -0.3383   -0.4254    6.3610 H           1 ROC       0.1814
     61 H12        -1.4645   -1.0718    7.4269 H           1 ROC       0.1814
     62 H13        -2.0330    3.9437    9.3658 H           1 ROC       0.0672
     63 H14        -3.1353    5.2664   10.6296 H           1 ROC       0.2101
     64 H15        -2.9958    5.3369    7.0122 H           1 ROC       0.0606
     65 H16        -4.3720    3.2478    8.5061 H           1 ROC       0.1857
     66 H17        -4.3139    6.5600    9.1332 H           1 ROC       0.0449
     67 H18        -5.4119    5.2628    8.7466 H           1 ROC       0.0449
     68 H19        -5.2512    8.5205    8.2623 H           1 ROC       0.0557
     69 H20        -5.3538    5.0577    5.8296 H           1 ROC       0.0557
     70 H21        -6.2263    9.7974    6.4728 H           1 ROC       0.0599
     71 H22        -6.2830    6.3688    4.0278 H           1 ROC       0.0599
     72 H23        -6.7317    8.7391    4.3444 H           1 ROC       0.0559
     73 H24         1.0245    6.1488    8.3438 H           1 ROC       0.2057
     74 H25        -1.0254    6.2683    7.7085 H           1 ROC       0.0841
     75 H26        -0.5514    4.5896    7.6119 H           1 ROC       0.0841
     76 H27         1.5845    4.0565    8.7106 H           1 ROC       0.1100
     77 H28         3.2808    5.4659    9.1227 H           1 ROC       0.0348
     78 H29         3.2990    4.5286   10.5931 H           1 ROC       0.0348
     79 H30         3.6727    7.0770   10.7041 H           1 ROC       0.0309
     80 H31         3.3046    5.8489   12.7807 H           1 ROC       0.0268
     81 H32         1.5512    5.9410   12.5889 H           1 ROC       0.0268
     82 H33         3.4402    8.3085   13.0279 H           1 ROC       0.0265
     83 H34         2.2596    7.6423   14.1804 H           1 ROC       0.0265
     84 H35         1.3862    9.7039   13.0438 H           1 ROC       0.0265
     85 H36         0.3675    8.2964   12.7227 H           1 ROC       0.0265
     86 H37         2.4854    9.4977   10.8638 H           1 ROC       0.0270
     87 H38         0.7378    9.5601   10.6195 H           1 ROC       0.0270
     88 H39         1.9893    7.8724    9.2085 H           1 ROC       0.0355
     89 H40        -0.1116    6.5564   10.9966 H           1 ROC       0.0818
     90 H41        -0.4409    7.6286    9.6275 H           1 ROC       0.0818
     91 H42        -0.2093    2.7533    9.1069 H           1 ROC       0.1859
     92 H43        -2.2883    0.2227   10.2978 H           1 ROC       0.0254
     93 H44        -1.5407    0.9174    8.8557 H           1 ROC       0.0254
     94 H45        -2.5914    1.9233    9.8790 H           1 ROC       0.0254
     95 H46        -1.6323    0.9750   12.5795 H           1 ROC       0.0254
     96 H47        -1.7168    2.7094   12.2272 H           1 ROC       0.0254
     97 H48        -0.2218    2.0060   12.8570 H           1 ROC       0.0254
     98 H49         0.0470   -0.5144   11.0206 H           1 ROC       0.0254
     99 H50         1.3410    0.6690   11.2421 H           1 ROC       0.0254
    100 H51         0.7864    0.2536    9.6261 H           1 ROC       0.0254
@<TRIPOS>BOND
     1     1     2   2
     2     1     4   1
     3    13     1  am
     4     4     3  ar
     5     3    12  ar
     6     4     5  ar
     7     5     6  ar
     8     6    11  ar
     9     7     8  ar
    10    11     7  ar
    11     9     8  ar
    12    10     9  ar
    13    12    10  ar
    14    12    11  ar
    15    14    13   1
    16    15    14   1
    17    14    17   1
    18    15    16   2
    19    24    15  am
    20    17    18   1
    21    18    19   2
    22    18    20  am
    23    21    22   1
    24    23    21   1
    25    21    33   1
    26    23    24   1
    27    23    25   1
    28    25    26   1
    29    26    27  ar
    30    26    28  ar
    31    27    29  ar
    32    28    30  ar
    33    29    31  ar
    34    30    31  ar
    35    33    32   1
    36    32    34   1
    37    32    44   1
    38    34    35   1
    39    34    37   1
    40    35    36   2
    41    35    45  am
    42    37    38   1
    43    38    39   1
    44    38    43   1
    45    39    40   1
    46    40    41   1
    47    41    42   1
    48    42    43   1
    49    43    44   1
    50    45    46   1
    51    46    47   1
    52    46    48   1
    53    46    49   1
    54     5    50   1
    55     6    51   1
    56     7    52   1
    57     8    53   1
    58     9    54   1
    59    10    55   1
    60    13    56   1
    61    14    57   1
    62    17    58   1
    63    17    59   1
    64    20    60   1
    65    20    61   1
    66    21    62   1
    67    22    63   1
    68    23    64   1
    69    24    65   1
    70    25    66   1
    71    25    67   1
    72    27    68   1
    73    28    69   1
    74    29    70   1
    75    30    71   1
    76    31    72   1
    77    32    73   1
    78    33    74   1
    79    33    75   1
    80    34    76   1
    81    37    77   1
    82    37    78   1
    83    38    79   1
    84    39    80   1
    85    39    81   1
    86    40    82   1
    87    40    83   1
    88    41    84   1
    89    41    85   1
    90    42    86   1
    91    42    87   1
    92    43    88   1
    93    44    89   1
    94    44    90   1
    95    45    91   1
    96    47    92   1
    97    47    93   1
    98    47    94   1
    99    48    95   1
   100    48    96   1
   101    48    97   1
   102    49    98   1
   103    49    99   1
   104    49   100   1
@<TRIPOS>SUBSTRUCTURE
     1  ROC      1

