@<TRIPOS>MOLECULE
3pww_ligand_051
   100   104
SMALL
GAST_HUCK
****
This file was generated by PARSER (from files_GN.cpp)

@<TRIPOS>ATOM
      1 C          -3.1615   -0.7505   10.2100 C.2         1 ROC       0.2293
      2 O          -2.0290   -0.6427   10.6709 O.2         1 ROC      -0.3762
      3 N1         -3.6824   -2.1106   12.0855 N.ar        1 ROC      -0.2737
      4 C2         -4.0999   -1.4740   10.9521 C.ar        1 ROC       0.1219
      5 C3         -5.4640   -1.6195   10.5965 C.ar        1 ROC      -0.0136
      6 C4         -6.3260   -2.3948   11.3973 C.ar        1 ROC      -0.0314
      7 C5         -6.6669   -3.8146   13.4010 C.ar        1 ROC      -0.0444
      8 C6         -6.1283   -4.4313   14.5475 C.ar        1 ROC      -0.0546
      9 C7         -4.7664   -4.2689   14.8638 C.ar        1 ROC      -0.0545
     10 C8         -3.9395   -3.4831   14.0404 C.ar        1 ROC      -0.0370
     11 C4A        -5.8422   -3.0330   12.5596 C.ar        1 ROC       0.0097
     12 C8A        -4.4721   -2.8683   12.8885 C.ar        1 ROC       0.0527
     13 N          -3.4226   -0.2350    9.0058 N.am        1 ROC      -0.2600
     14 CA         -2.4738    0.3591    8.0916 C.3         1 ROC       0.1473
     15 C1         -2.9154    1.7075    7.7261 C.2         1 ROC       0.2045
     16 O1         -3.3142    1.9561    6.5959 O.2         1 ROC      -0.3943
     17 CB         -2.2774   -0.6422    6.9059 C.3         1 ROC       0.0773
     18 CG         -1.1058   -0.3583    6.0960 C.2         1 ROC       0.1780
     19 OD1        -1.1703    0.4070    5.1440 O.2         1 ROC      -0.3970
     20 ND2         0.0651   -0.8710    6.4048 N.am        1 ROC      -0.3007
     21 C9         -4.5725    4.3440    7.7676 C.3         1 ROC       0.1194
     22 O2         -5.0186    5.6384    8.1688 O.3         1 ROC      -0.3840
     23 CA1        -3.1828    4.0746    8.4643 C.3         1 ROC       0.0823
     24 N2         -2.8501    2.6803    8.6284 N.am        1 ROC      -0.2772
     25 CB1        -2.0082    4.8840    7.8021 C.3         1 ROC       0.0066
     26 CG1        -0.9662    5.3744    8.7506 C.ar        1 ROC      -0.0408
     27 CD1        -0.1748    4.4579    9.4850 C.ar        1 ROC      -0.0603
     28 CD2        -0.7336    6.7613    8.9302 C.ar        1 ROC      -0.0603
     29 CE1         0.8108    4.9151   10.3804 C.ar        1 ROC      -0.0686
     30 CE2         0.2612    7.2177    9.8160 C.ar        1 ROC      -0.0686
     31 CZ          1.0310    6.2948   10.5432 C.ar        1 ROC      -0.0687
     32 N11        -7.1059    3.5967    7.6456 N.4         1 ROC       0.2562
     33 CM         -5.6801    3.2839    8.0410 C.3         1 ROC      -0.0008
     34 C21        -7.9882    2.3614    7.6243 C.3         1 ROC       0.0688
     35 CC         -7.6197    1.2883    6.6844 C.2         1 ROC       0.2251
     36 O3         -7.1117    1.5680    5.6079 O.2         1 ROC      -0.3909
     37 C31        -9.4969    2.7518    7.4933 C.3         1 ROC       0.0113
     38 C3A        -9.8299    3.8073    6.3917 C.3         1 ROC      -0.0261
     39 C41        -9.9831    3.2075    4.9574 C.3         1 ROC      -0.0494
     40 C51       -10.2779    4.2961    3.8929 C.3         1 ROC      -0.0528
     41 C61        -9.2183    5.4263    3.9188 C.3         1 ROC      -0.0526
     42 C71        -9.1067    6.0514    5.3320 C.3         1 ROC      -0.0451
     43 C7A        -8.8213    4.9999    6.4487 C.3         1 ROC       0.0024
     44 C81        -7.3417    4.5052    6.4722 C.3         1 ROC      -0.0266
     45 N3         -7.7999    0.0138    7.0237 N.am        1 ROC      -0.2771
     46 CD         -7.5527   -1.1815    6.2421 C.3         1 ROC       0.0448
     47 C11        -8.4850   -1.2008    4.9895 C.3         1 ROC      -0.0396
     48 C22        -7.9125   -2.3943    7.1551 C.3         1 ROC      -0.0396
     49 C32        -6.0561   -1.3217    5.8107 C.3         1 ROC      -0.0396
     50 H1         -5.8453   -1.1666    9.7636 H           1 ROC       0.0729
     51 H2         -7.3084   -2.4903   11.1270 H           1 ROC       0.0774
     52 H3         -7.6592   -3.9403   13.1885 H           1 ROC       0.0657
     53 H4         -6.7269   -4.9995   15.1517 H           1 ROC       0.0652
     54 H5         -4.3769   -4.7194   15.6947 H           1 ROC       0.0657
     55 H6         -2.9529   -3.3627   14.2839 H           1 ROC       0.0653
     56 H7         -4.3228   -0.3424    8.6640 H           1 ROC       0.1882
     57 H8         -1.4967    0.4753    8.5729 H           1 ROC       0.0826
     58 H9         -3.1676   -0.6579    6.2711 H           1 ROC       0.0551
     59 H10        -2.1715   -1.6532    7.3132 H           1 ROC       0.0551
     60 H11         0.8476   -0.6425    5.8794 H           1 ROC       0.1814
     61 H12         0.1480   -1.4745    7.1633 H           1 ROC       0.1814
     62 H13        -4.4211    4.3748    6.6853 H           1 ROC       0.0672
     63 H14        -5.0122    5.6284    9.1582 H           1 ROC       0.2101
     64 H15        -3.2972    4.4344    9.4905 H           1 ROC       0.0606
     65 H16        -2.5487    2.4228    9.5174 H           1 ROC       0.1857
     66 H17        -2.4147    5.7382    7.2528 H           1 ROC       0.0449
     67 H18        -1.5035    4.2705    7.0499 H           1 ROC       0.0449
     68 H19        -0.3121    3.4516    9.3716 H           1 ROC       0.0557
     69 H20        -1.2806    7.4517    8.4113 H           1 ROC       0.0557
     70 H21         1.3694    4.2434   10.9117 H           1 ROC       0.0599
     71 H22         0.4209    8.2214    9.9306 H           1 ROC       0.0599
     72 H23         1.7512    6.6261   11.1882 H           1 ROC       0.0559
     73 H24        -7.4350    4.1427    8.4462 H           1 ROC       0.2057
     74 H25        -5.6856    3.0885    9.1174 H           1 ROC       0.0841
     75 H26        -5.3521    2.3624    7.5534 H           1 ROC       0.0841
     76 H27        -7.8927    1.9273    8.6269 H           1 ROC       0.1100
     77 H28        -9.8030    3.1805    8.4535 H           1 ROC       0.0348
     78 H29       -10.1144    1.8592    7.3483 H           1 ROC       0.0348
     79 H30       -10.8167    4.2136    6.6462 H           1 ROC       0.0309
     80 H31       -10.8033    2.4834    4.9521 H           1 ROC       0.0268
     81 H32        -9.0762    2.6812    4.6624 H           1 ROC       0.0268
     82 H33       -11.2676    4.7246    4.0754 H           1 ROC       0.0265
     83 H34       -10.2880    3.8386    2.8997 H           1 ROC       0.0265
     84 H35        -9.4997    6.2032    3.2036 H           1 ROC       0.0265
     85 H36        -8.2476    5.0281    3.6126 H           1 ROC       0.0265
     86 H37       -10.0498    6.5569    5.5616 H           1 ROC       0.0270
     87 H38        -8.3253    6.8147    5.3290 H           1 ROC       0.0270
     88 H39        -8.9819    5.5130    7.4051 H           1 ROC       0.0355
     89 H40        -7.0809    4.0226    5.5306 H           1 ROC       0.0818
     90 H41        -6.7109    5.3947    6.5577 H           1 ROC       0.0818
     91 H42        -8.1689   -0.1361    7.9126 H           1 ROC       0.1859
     92 H43        -8.4052   -2.1541    4.4613 H           1 ROC       0.0254
     93 H44        -8.2205   -0.4057    4.2899 H           1 ROC       0.0254
     94 H45        -9.5272   -1.0593    5.2888 H           1 ROC       0.0254
     95 H46        -7.7913   -3.3385    6.6179 H           1 ROC       0.0254
     96 H47        -8.9492   -2.3267    7.4974 H           1 ROC       0.0254
     97 H48        -7.2647   -2.4198    8.0359 H           1 ROC       0.0254
     98 H49        -5.8812   -2.2904    5.3361 H           1 ROC       0.0254
     99 H50        -5.4009   -1.2398    6.6802 H           1 ROC       0.0254
    100 H51        -5.7726   -0.5506    5.0934 H           1 ROC       0.0254
@<TRIPOS>BOND
     1     1     2   2
     2     1     4   1
     3    13     1  am
     4     4     3  ar
     5     3    12  ar
     6     4     5  ar
     7     5     6  ar
     8     6    11  ar
     9     7     8  ar
    10    11     7  ar
    11     9     8  ar
    12    10     9  ar
    13    12    10  ar
    14    12    11  ar
    15    14    13   1
    16    15    14   1
    17    14    17   1
    18    15    16   2
    19    24    15  am
    20    17    18   1
    21    18    19   2
    22    18    20  am
    23    21    22   1
    24    23    21   1
    25    21    33   1
    26    23    24   1
    27    23    25   1
    28    25    26   1
    29    26    27  ar
    30    26    28  ar
    31    27    29  ar
    32    28    30  ar
    33    29    31  ar
    34    30    31  ar
    35    33    32   1
    36    32    34   1
    37    32    44   1
    38    34    35   1
    39    34    37   1
    40    35    36   2
    41    35    45  am
    42    37    38   1
    43    38    39   1
    44    38    43   1
    45    39    40   1
    46    40    41   1
    47    41    42   1
    48    42    43   1
    49    43    44   1
    50    45    46   1
    51    46    47   1
    52    46    48   1
    53    46    49   1
    54     5    50   1
    55     6    51   1
    56     7    52   1
    57     8    53   1
    58     9    54   1
    59    10    55   1
    60    13    56   1
    61    14    57   1
    62    17    58   1
    63    17    59   1
    64    20    60   1
    65    20    61   1
    66    21    62   1
    67    22    63   1
    68    23    64   1
    69    24    65   1
    70    25    66   1
    71    25    67   1
    72    27    68   1
    73    28    69   1
    74    29    70   1
    75    30    71   1
    76    31    72   1
    77    32    73   1
    78    33    74   1
    79    33    75   1
    80    34    76   1
    81    37    77   1
    82    37    78   1
    83    38    79   1
    84    39    80   1
    85    39    81   1
    86    40    82   1
    87    40    83   1
    88    41    84   1
    89    41    85   1
    90    42    86   1
    91    42    87   1
    92    43    88   1
    93    44    89   1
    94    44    90   1
    95    45    91   1
    96    47    92   1
    97    47    93   1
    98    47    94   1
    99    48    95   1
   100    48    96   1
   101    48    97   1
   102    49    98   1
   103    49    99   1
   104    49   100   1
@<TRIPOS>SUBSTRUCTURE
     1  ROC      1

