@<TRIPOS>MOLECULE
3pww_ligand_022
   100   104
SMALL
GAST_HUCK
****
This file was generated by PARSER (from files_GN.cpp)

@<TRIPOS>ATOM
      1 C          -3.0002   -0.9825   10.3528 C.2         1 ROC       0.2293
      2 O          -1.8692   -0.8821   10.8219 O.2         1 ROC      -0.3762
      3 N1         -3.5847   -2.2619   12.2533 N.ar        1 ROC      -0.2737
      4 C2         -3.9595   -1.6886   11.0773 C.ar        1 ROC       0.1219
      5 C3         -5.3076   -1.8510   10.6730 C.ar        1 ROC      -0.0136
      6 C4         -6.2011   -2.5910   11.4724 C.ar        1 ROC      -0.0314
      7 C5         -6.6165   -3.9259   13.5141 C.ar        1 ROC      -0.0444
      8 C6         -6.1212   -4.4856   14.7080 C.ar        1 ROC      -0.0546
      9 C7         -4.7782   -4.2927   15.0760 C.ar        1 ROC      -0.0545
     10 C8         -3.9193   -3.5368   14.2565 C.ar        1 ROC      -0.0370
     11 C4A        -5.7612   -3.1745   12.6787 C.ar        1 ROC       0.0097
     12 C8A        -4.4079   -2.9818   13.0585 C.ar        1 ROC       0.0527
     13 N          -3.2703   -0.4226    9.1789 N.am        1 ROC      -0.2600
     14 CA         -2.3732    0.3041    8.3217 C.3         1 ROC       0.1473
     15 C1         -2.8783    1.6772    8.2493 C.2         1 ROC       0.2045
     16 O1         -3.9153    1.8969    7.6263 O.2         1 ROC      -0.3943
     17 CB         -2.2960   -0.4510    6.9523 C.3         1 ROC       0.0773
     18 CG         -1.1035   -0.1702    6.1780 C.2         1 ROC       0.1780
     19 OD1        -1.1378    0.5935    5.2222 O.2         1 ROC      -0.3970
     20 ND2         0.0364   -0.7764    6.4499 N.am        1 ROC      -0.3007
     21 C9         -3.1061    4.8106    7.9451 C.3         1 ROC       0.1194
     22 O2         -2.3827    6.0473    7.9220 O.3         1 ROC      -0.3840
     23 CA1        -2.8438    3.9550    9.2533 C.3         1 ROC       0.0823
     24 N2         -2.3189    2.6310    9.0003 N.am        1 ROC      -0.2772
     25 CB1        -1.9958    4.6694   10.3604 C.3         1 ROC       0.0066
     26 CG1        -0.5237    4.8679   10.2064 C.ar        1 ROC      -0.0408
     27 CD1         0.1662    5.6583   11.1569 C.ar        1 ROC      -0.0603
     28 CD2         0.2363    4.2442    9.1837 C.ar        1 ROC      -0.0603
     29 CE1         1.5610    5.8140   11.1003 C.ar        1 ROC      -0.0686
     30 CE2         1.6336    4.3937    9.1305 C.ar        1 ROC      -0.0686
     31 CZ          2.2995    5.1798   10.0829 C.ar        1 ROC      -0.0687
     32 N11        -5.0237    4.7836    6.2477 N.4         1 ROC       0.2562
     33 CM         -4.6157    5.1434    7.6549 C.3         1 ROC      -0.0008
     34 C21        -4.3822    5.6011    5.1554 C.3         1 ROC       0.0688
     35 CC         -4.6193    7.0448    5.2414 C.2         1 ROC       0.2251
     36 O3         -5.7375    7.5287    5.0235 O.2         1 ROC      -0.3909
     37 C31        -4.6680    4.9551    3.7603 C.3         1 ROC       0.0113
     38 C3A        -6.1231    4.4399    3.4916 C.3         1 ROC      -0.0261
     39 C41        -7.0492    5.5111    2.8372 C.3         1 ROC      -0.0494
     40 C51        -8.4901    4.9878    2.6227 C.3         1 ROC      -0.0528
     41 C61        -9.1011    4.4933    3.9591 C.3         1 ROC      -0.0526
     42 C71        -8.2384    3.3588    4.5700 C.3         1 ROC      -0.0451
     43 C7A        -6.7403    3.7507    4.7625 C.3         1 ROC       0.0024
     44 C81        -6.4963    4.5769    6.0568 C.3         1 ROC      -0.0266
     45 N3         -3.6284    7.8653    5.6189 N.am        1 ROC      -0.2771
     46 CD         -3.6762    9.2511    6.0294 C.3         1 ROC       0.0448
     47 C11        -3.8474    9.3266    7.5810 C.3         1 ROC      -0.0396
     48 C22        -4.7813   10.0993    5.3134 C.3         1 ROC      -0.0396
     49 C32        -2.2797    9.8513    5.6487 C.3         1 ROC      -0.0396
     50 H1         -5.6565   -1.4433    9.8035 H           1 ROC       0.0729
     51 H2         -7.1720   -2.6987   11.1647 H           1 ROC       0.0774
     52 H3         -7.5945   -4.0720   13.2588 H           1 ROC       0.0657
     53 H4         -6.7393   -5.0379   15.3012 H           1 ROC       0.0652
     54 H5         -4.4151   -4.7039   15.9383 H           1 ROC       0.0657
     55 H6         -2.9443   -3.3983   14.5337 H           1 ROC       0.0653
     56 H7         -4.1741   -0.5154    8.8448 H           1 ROC       0.1882
     57 H8         -1.3603    0.3132    8.7492 H           1 ROC       0.0826
     58 H9         -3.1893   -0.2355    6.3535 H           1 ROC       0.0551
     59 H10        -2.3075   -1.5312    7.1331 H           1 ROC       0.0551
     60 H11         0.8168   -0.6036    5.9059 H           1 ROC       0.1814
     61 H12         0.0919   -1.4177    7.1795 H           1 ROC       0.1814
     62 H13        -2.7069    4.2372    7.1013 H           1 ROC       0.0672
     63 H14        -1.6719    5.9368    7.2456 H           1 ROC       0.2101
     64 H15        -3.8053    3.7688    9.7500 H           1 ROC       0.0606
     65 H16        -1.5462    2.3627    9.5267 H           1 ROC       0.1857
     66 H17        -2.1401    4.1251   11.2999 H           1 ROC       0.0449
     67 H18        -2.4657    5.6488   10.4961 H           1 ROC       0.0449
     68 H19        -0.3434    6.1120   11.9165 H           1 ROC       0.0557
     69 H20        -0.2144    3.6598    8.4753 H           1 ROC       0.0557
     70 H21         2.0426    6.3861   11.7990 H           1 ROC       0.0599
     71 H22         2.1652    3.9186    8.3999 H           1 ROC       0.0599
     72 H23         3.3155    5.2879   10.0431 H           1 ROC       0.0559
     73 H24        -4.6376    3.8467    6.1107 H           1 ROC       0.2057
     74 H25        -4.8164    6.2029    7.8473 H           1 ROC       0.0841
     75 H26        -5.2493    4.6140    8.3695 H           1 ROC       0.0841
     76 H27        -3.3029    5.4650    5.2921 H           1 ROC       0.1100
     77 H28        -4.0165    4.0840    3.6852 H           1 ROC       0.0348
     78 H29        -4.3517    5.6333    2.9614 H           1 ROC       0.0348
     79 H30        -6.0270    3.6433    2.7314 H           1 ROC       0.0309
     80 H31        -6.6363    5.7974    1.8651 H           1 ROC       0.0268
     81 H32        -7.0933    6.3964    3.4565 H           1 ROC       0.0268
     82 H33        -8.4850    4.1646    1.8967 H           1 ROC       0.0265
     83 H34        -9.1145    5.7900    2.2182 H           1 ROC       0.0265
     84 H35       -10.1139    4.1196    3.7774 H           1 ROC       0.0265
     85 H36        -9.1715    5.3292    4.6615 H           1 ROC       0.0265
     86 H37        -8.2936    2.4897    3.9055 H           1 ROC       0.0270
     87 H38        -8.6760    3.0604    5.5247 H           1 ROC       0.0270
     88 H39        -6.1990    2.8048    4.9036 H           1 ROC       0.0355
     89 H40        -7.0345    5.5236    6.0315 H           1 ROC       0.0818
     90 H41        -6.8928    3.9892    6.8874 H           1 ROC       0.0818
     91 H42        -2.7522    7.4384    5.7368 H           1 ROC       0.1859
     92 H43        -3.8594   10.3650    7.9215 H           1 ROC       0.0254
     93 H44        -3.0277    8.8041    8.0846 H           1 ROC       0.0254
     94 H45        -4.7866    8.8532    7.8814 H           1 ROC       0.0254
     95 H46        -4.6355   11.1712    5.5088 H           1 ROC       0.0254
     96 H47        -5.7743    9.8313    5.6811 H           1 ROC       0.0254
     97 H48        -4.7472    9.9297    4.2326 H           1 ROC       0.0254
     98 H49        -2.2073   10.9050    5.9325 H           1 ROC       0.0254
     99 H50        -2.1216    9.7751    4.5658 H           1 ROC       0.0254
    100 H51        -1.4686    9.3099    6.1476 H           1 ROC       0.0254
@<TRIPOS>BOND
     1     1     2   2
     2     1     4   1
     3    13     1  am
     4     4     3  ar
     5     3    12  ar
     6     4     5  ar
     7     5     6  ar
     8     6    11  ar
     9     7     8  ar
    10    11     7  ar
    11     9     8  ar
    12    10     9  ar
    13    12    10  ar
    14    12    11  ar
    15    14    13   1
    16    15    14   1
    17    14    17   1
    18    15    16   2
    19    24    15  am
    20    17    18   1
    21    18    19   2
    22    18    20  am
    23    21    22   1
    24    23    21   1
    25    21    33   1
    26    23    24   1
    27    23    25   1
    28    25    26   1
    29    26    27  ar
    30    26    28  ar
    31    27    29  ar
    32    28    30  ar
    33    29    31  ar
    34    30    31  ar
    35    33    32   1
    36    32    34   1
    37    32    44   1
    38    34    35   1
    39    34    37   1
    40    35    36   2
    41    35    45  am
    42    37    38   1
    43    38    39   1
    44    38    43   1
    45    39    40   1
    46    40    41   1
    47    41    42   1
    48    42    43   1
    49    43    44   1
    50    45    46   1
    51    46    47   1
    52    46    48   1
    53    46    49   1
    54     5    50   1
    55     6    51   1
    56     7    52   1
    57     8    53   1
    58     9    54   1
    59    10    55   1
    60    13    56   1
    61    14    57   1
    62    17    58   1
    63    17    59   1
    64    20    60   1
    65    20    61   1
    66    21    62   1
    67    22    63   1
    68    23    64   1
    69    24    65   1
    70    25    66   1
    71    25    67   1
    72    27    68   1
    73    28    69   1
    74    29    70   1
    75    30    71   1
    76    31    72   1
    77    32    73   1
    78    33    74   1
    79    33    75   1
    80    34    76   1
    81    37    77   1
    82    37    78   1
    83    38    79   1
    84    39    80   1
    85    39    81   1
    86    40    82   1
    87    40    83   1
    88    41    84   1
    89    41    85   1
    90    42    86   1
    91    42    87   1
    92    43    88   1
    93    44    89   1
    94    44    90   1
    95    45    91   1
    96    47    92   1
    97    47    93   1
    98    47    94   1
    99    48    95   1
   100    48    96   1
   101    48    97   1
   102    49    98   1
   103    49    99   1
   104    49   100   1
@<TRIPOS>SUBSTRUCTURE
     1  ROC      1

