@<TRIPOS>MOLECULE
3pww_ligand_086
   100   104
SMALL
GAST_HUCK
****
This file was generated by PARSER (from files_GN.cpp)

@<TRIPOS>ATOM
      1 C          -0.6050    7.5669    8.5204 C.2         1 ROC       0.2293
      2 O          -1.8245    7.5322    8.6546 O.2         1 ROC      -0.3762
      3 N1         -0.6935    9.9179    8.8467 N.ar        1 ROC      -0.2737
      4 C2          0.0033    8.8250    8.4178 C.ar        1 ROC       0.1219
      5 C3          1.3206    9.0457    7.9514 C.ar        1 ROC      -0.0136
      6 C4          1.8766   10.3418    7.9644 C.ar        1 ROC      -0.0314
      7 C5          1.6554   12.7399    8.5285 C.ar        1 ROC      -0.0444
      8 C6          0.8627   13.7951    9.0247 C.ar        1 ROC      -0.0546
      9 C7         -0.4589   13.5463    9.4353 C.ar        1 ROC      -0.0545
     10 C8         -0.9919   12.2469    9.3657 C.ar        1 ROC      -0.0370
     11 C4A         1.1279   11.4305    8.4481 C.ar        1 ROC       0.0097
     12 C8A        -0.2011   11.1822    8.8791 C.ar        1 ROC       0.0527
     13 N           0.1126    6.4453    8.5916 N.am        1 ROC      -0.2600
     14 CA         -0.2807    5.0786    8.8764 C.3         1 ROC       0.1473
     15 C1         -1.6986    4.7805    9.0793 C.2         1 ROC       0.2045
     16 O1         -2.2886    5.3227   10.0028 O.2         1 ROC      -0.3943
     17 CB          0.5979    4.4975   10.0281 C.3         1 ROC       0.0773
     18 CG          0.7588    5.3084   11.2277 C.2         1 ROC       0.1780
     19 OD1        -0.0423    6.1781   11.5454 O.2         1 ROC      -0.3970
     20 ND2         1.7929    5.1020   12.0188 N.am        1 ROC      -0.3007
     21 C9         -4.4958    5.1304    7.7978 C.3         1 ROC       0.1194
     22 O2         -4.9934    5.7174    9.0007 O.3         1 ROC      -0.3840
     23 CA1        -3.7420    3.7679    8.0421 C.3         1 ROC       0.0823
     24 N2         -2.3269    3.9805    8.2195 N.am        1 ROC      -0.2772
     25 CB1        -4.4088    2.7706    9.0567 C.3         1 ROC       0.0066
     26 CG1        -3.6657    2.4421   10.3045 C.ar        1 ROC      -0.0408
     27 CD1        -2.5402    1.5847   10.2660 C.ar        1 ROC      -0.0603
     28 CD2        -4.0949    2.9388   11.5587 C.ar        1 ROC      -0.0603
     29 CE1        -1.8621    1.2344   11.4502 C.ar        1 ROC      -0.0686
     30 CE2        -3.4148    2.5930   12.7394 C.ar        1 ROC      -0.0686
     31 CZ         -2.2983    1.7398   12.6875 C.ar        1 ROC      -0.0687
     32 N11        -6.9956    4.6979    7.3050 N.4         1 ROC       0.2562
     33 CM         -5.6457    5.0876    6.7469 C.3         1 ROC      -0.0008
     34 C21        -7.4715    3.3076    6.9459 C.3         1 ROC       0.0688
     35 CC         -7.6218    2.9381    5.5306 C.2         1 ROC       0.2251
     36 O3         -7.8209    1.7568    5.2793 O.2         1 ROC      -0.3909
     37 C31        -8.7404    2.9731    7.7989 C.3         1 ROC       0.0113
     38 C3A        -9.8768    4.0383    7.7239 C.3         1 ROC      -0.0261
     39 C41       -10.6982    3.9859    6.3989 C.3         1 ROC      -0.0494
     40 C51       -11.8022    5.0715    6.3522 C.3         1 ROC      -0.0528
     41 C61       -11.2188    6.4875    6.5829 C.3         1 ROC      -0.0526
     42 C71       -10.4081    6.5608    7.9047 C.3         1 ROC      -0.0451
     43 C7A        -9.3040    5.4616    8.0220 C.3         1 ROC       0.0024
     44 C81        -8.0438    5.7633    7.1599 C.3         1 ROC      -0.0266
     45 N3         -7.4946    3.8169    4.5402 N.am        1 ROC      -0.2771
     46 CD         -7.5526    3.6135    3.1125 C.3         1 ROC       0.0448
     47 C11        -6.2632    2.8835    2.6233 C.3         1 ROC      -0.0396
     48 C22        -7.6039    5.0337    2.4682 C.3         1 ROC      -0.0396
     49 C32        -8.8338    2.8343    2.6771 C.3         1 ROC      -0.0396
     50 H1          1.8857    8.2751    7.5923 H           1 ROC       0.0729
     51 H2          2.8324   10.4775    7.6237 H           1 ROC       0.0774
     52 H3          2.6203   12.9360    8.2530 H           1 ROC       0.0657
     53 H4          1.2496   14.7398    9.0968 H           1 ROC       0.0652
     54 H5         -1.0347   14.3155    9.8006 H           1 ROC       0.0657
     55 H6         -1.9477   12.0731    9.6779 H           1 ROC       0.0653
     56 H7          1.0663    6.5505    8.4420 H           1 ROC       0.1882
     57 H8          0.0299    4.5399    7.9776 H           1 ROC       0.0826
     58 H9          1.5981    4.3187    9.6119 H           1 ROC       0.0551
     59 H10         0.2133    3.5188   10.3404 H           1 ROC       0.0551
     60 H11         1.9176    5.6406   12.8180 H           1 ROC       0.1814
     61 H12         2.4393    4.4063   11.7983 H           1 ROC       0.1814
     62 H13        -3.7660    5.8415    7.3937 H           1 ROC       0.0672
     63 H14        -4.2104    5.9680    9.5287 H           1 ROC       0.2101
     64 H15        -3.7617    3.2500    7.0769 H           1 ROC       0.0606
     65 H16        -1.7583    3.5327    7.5719 H           1 ROC       0.1857
     66 H17        -4.5910    1.8171    8.5497 H           1 ROC       0.0449
     67 H18        -5.3989    3.1413    9.3205 H           1 ROC       0.0449
     68 H19        -2.2091    1.2061    9.3733 H           1 ROC       0.0557
     69 H20        -4.9058    3.5577   11.6185 H           1 ROC       0.0557
     70 H21        -1.0553    0.6070   11.4110 H           1 ROC       0.0599
     71 H22        -3.7421    2.9514   13.6374 H           1 ROC       0.0599
     72 H23        -1.8150    1.4769   13.5501 H           1 ROC       0.0559
     73 H24        -6.8625    4.6577    8.3181 H           1 ROC       0.2057
     74 H25        -5.3343    4.4344    5.9303 H           1 ROC       0.0841
     75 H26        -5.6980    6.0848    6.2954 H           1 ROC       0.0841
     76 H27        -6.6942    2.6339    7.3135 H           1 ROC       0.1100
     77 H28        -8.4242    2.9072    8.8467 H           1 ROC       0.0348
     78 H29        -9.1372    1.9886    7.5385 H           1 ROC       0.0348
     79 H30       -10.5802    3.7988    8.5280 H           1 ROC       0.0309
     80 H31       -11.1639    3.0034    6.2956 H           1 ROC       0.0268
     81 H32       -10.0470    4.1374    5.5412 H           1 ROC       0.0268
     82 H33       -12.5542    4.8590    7.1169 H           1 ROC       0.0265
     83 H34       -12.2982    5.0423    5.3775 H           1 ROC       0.0265
     84 H35       -12.0363    7.2127    6.6218 H           1 ROC       0.0265
     85 H36       -10.5767    6.7600    5.7410 H           1 ROC       0.0265
     86 H37       -11.1058    6.4460    8.7400 H           1 ROC       0.0270
     87 H38        -9.9583    7.5540    7.9961 H           1 ROC       0.0270
     88 H39        -8.9715    5.4706    9.0681 H           1 ROC       0.0355
     89 H40        -8.3246    5.8918    6.1151 H           1 ROC       0.0818
     90 H41        -7.6332    6.7166    7.5075 H           1 ROC       0.0818
     91 H42        -7.2984    4.7237    4.8120 H           1 ROC       0.1859
     92 H43        -6.2428    2.8204    1.5332 H           1 ROC       0.0254
     93 H44        -6.2136    1.8695    3.0214 H           1 ROC       0.0254
     94 H45        -5.3719    3.4229    2.9528 H           1 ROC       0.0254
     95 H46        -7.6506    4.9671    1.3787 H           1 ROC       0.0254
     96 H47        -6.7187    5.6167    2.7362 H           1 ROC       0.0254
     97 H48        -8.4864    5.5809    2.8127 H           1 ROC       0.0254
     98 H49        -8.9125    2.8027    1.5884 H           1 ROC       0.0254
     99 H50        -9.7301    3.3176    3.0713 H           1 ROC       0.0254
    100 H51        -8.8141    1.8059    3.0365 H           1 ROC       0.0254
@<TRIPOS>BOND
     1     1     2   2
     2     1     4   1
     3    13     1  am
     4     4     3  ar
     5     3    12  ar
     6     4     5  ar
     7     5     6  ar
     8     6    11  ar
     9     7     8  ar
    10    11     7  ar
    11     9     8  ar
    12    10     9  ar
    13    12    10  ar
    14    12    11  ar
    15    14    13   1
    16    15    14   1
    17    14    17   1
    18    15    16   2
    19    24    15  am
    20    17    18   1
    21    18    19   2
    22    18    20  am
    23    21    22   1
    24    23    21   1
    25    21    33   1
    26    23    24   1
    27    23    25   1
    28    25    26   1
    29    26    27  ar
    30    26    28  ar
    31    27    29  ar
    32    28    30  ar
    33    29    31  ar
    34    30    31  ar
    35    33    32   1
    36    32    34   1
    37    32    44   1
    38    34    35   1
    39    34    37   1
    40    35    36   2
    41    35    45  am
    42    37    38   1
    43    38    39   1
    44    38    43   1
    45    39    40   1
    46    40    41   1
    47    41    42   1
    48    42    43   1
    49    43    44   1
    50    45    46   1
    51    46    47   1
    52    46    48   1
    53    46    49   1
    54     5    50   1
    55     6    51   1
    56     7    52   1
    57     8    53   1
    58     9    54   1
    59    10    55   1
    60    13    56   1
    61    14    57   1
    62    17    58   1
    63    17    59   1
    64    20    60   1
    65    20    61   1
    66    21    62   1
    67    22    63   1
    68    23    64   1
    69    24    65   1
    70    25    66   1
    71    25    67   1
    72    27    68   1
    73    28    69   1
    74    29    70   1
    75    30    71   1
    76    31    72   1
    77    32    73   1
    78    33    74   1
    79    33    75   1
    80    34    76   1
    81    37    77   1
    82    37    78   1
    83    38    79   1
    84    39    80   1
    85    39    81   1
    86    40    82   1
    87    40    83   1
    88    41    84   1
    89    41    85   1
    90    42    86   1
    91    42    87   1
    92    43    88   1
    93    44    89   1
    94    44    90   1
    95    45    91   1
    96    47    92   1
    97    47    93   1
    98    47    94   1
    99    48    95   1
   100    48    96   1
   101    48    97   1
   102    49    98   1
   103    49    99   1
   104    49   100   1
@<TRIPOS>SUBSTRUCTURE
     1  ROC      1

