@<TRIPOS>MOLECULE
3pww_ligand_033
   100   104
SMALL
GAST_HUCK
****
This file was generated by PARSER (from files_GN.cpp)

@<TRIPOS>ATOM
      1 C          -4.2448    2.5662    5.8888 C.2         1 ROC       0.2293
      2 O          -5.3211    2.1067    5.5198 O.2         1 ROC      -0.3762
      3 N1         -5.1033    4.7298    5.4276 N.ar        1 ROC      -0.2737
      4 C2         -4.0564    3.9470    5.8225 C.ar        1 ROC       0.1219
      5 C3         -2.8526    4.6065    6.1830 C.ar        1 ROC      -0.0136
      6 C4         -2.7680    6.0076    6.1182 C.ar        1 ROC      -0.0314
      7 C5         -3.8506    8.1816    5.6444 C.ar        1 ROC      -0.0444
      8 C6         -4.9978    8.8953    5.2487 C.ar        1 ROC      -0.0546
      9 C7         -6.1758    8.2080    4.9067 C.ar        1 ROC      -0.0545
     10 C8         -6.2144    6.8027    4.9546 C.ar        1 ROC      -0.0370
     11 C4A        -3.8795    6.7726    5.7066 C.ar        1 ROC       0.0097
     12 C8A        -5.0705    6.0824    5.3565 C.ar        1 ROC       0.0527
     13 N          -3.3288    1.7412    6.3903 N.am        1 ROC      -0.2600
     14 CA         -3.4884    0.3224    6.6172 C.3         1 ROC       0.1473
     15 C1         -4.5317    0.0260    7.6027 C.2         1 ROC       0.2045
     16 O1         -5.0947   -1.0580    7.5551 O.2         1 ROC      -0.3943
     17 CB         -2.1477   -0.3256    7.0820 C.3         1 ROC       0.0773
     18 CG         -1.0124   -0.2392    6.1755 C.2         1 ROC       0.1780
     19 OD1        -1.0239    0.4673    5.1782 O.2         1 ROC      -0.3970
     20 ND2         0.0976   -0.8918    6.4414 N.am        1 ROC      -0.3007
     21 C9         -6.8658    1.7166    9.5289 C.3         1 ROC       0.1194
     22 O2         -7.5027    2.0029   10.7768 O.3         1 ROC      -0.3840
     23 CA1        -5.6581    0.7327    9.7156 C.3         1 ROC       0.0823
     24 N2         -4.7757    0.8809    8.5895 N.am        1 ROC      -0.2772
     25 CB1        -4.8437    1.0176   11.0170 C.3         1 ROC       0.0066
     26 CG1        -3.4813    0.4082   11.0518 C.ar        1 ROC      -0.0408
     27 CD1        -2.3281    1.2204   10.9274 C.ar        1 ROC      -0.0603
     28 CD2        -3.3152   -0.9929   11.1604 C.ar        1 ROC      -0.0603
     29 CE1        -1.0411    0.6500   10.9113 C.ar        1 ROC      -0.0686
     30 CE2        -2.0273   -1.5649   11.1466 C.ar        1 ROC      -0.0686
     31 CZ         -0.8923   -0.7439   11.0198 C.ar        1 ROC      -0.0687
     32 N11        -8.9268    0.2546    9.0984 N.4         1 ROC       0.2562
     33 CM         -7.9389    1.2261    8.5022 C.3         1 ROC      -0.0008
     34 C21        -9.1654   -1.0062    8.3026 C.3         1 ROC       0.0688
     35 CC         -9.7266   -0.8545    6.9528 C.2         1 ROC       0.2251
     36 O3        -10.0706    0.2467    6.5454 O.2         1 ROC      -0.3909
     37 C31        -9.9800   -2.0087    9.1901 C.3         1 ROC       0.0113
     38 C3A       -11.2956   -1.4223    9.7917 C.3         1 ROC      -0.0261
     39 C41       -12.4766   -1.3406    8.7721 C.3         1 ROC      -0.0494
     40 C51       -13.7550   -0.7398    9.4090 C.3         1 ROC      -0.0528
     41 C61       -13.4719    0.6505   10.0337 C.3         1 ROC      -0.0526
     42 C71       -12.3096    0.5862   11.0579 C.3         1 ROC      -0.0451
     43 C7A       -11.0070   -0.0529   10.4890 C.3         1 ROC       0.0024
     44 C81       -10.1972    0.9067    9.5719 C.3         1 ROC      -0.0266
     45 N3         -9.8465   -1.9244    6.1755 N.am        1 ROC      -0.2771
     46 CD        -10.4633   -2.0501    4.8734 C.3         1 ROC       0.0448
     47 C11       -10.0810   -3.4691    4.3529 C.3         1 ROC      -0.0396
     48 C22        -9.9443   -0.9939    3.8459 C.3         1 ROC      -0.0396
     49 C32       -12.0145   -1.9623    5.0141 C.3         1 ROC      -0.0396
     50 H1         -2.0346    4.0812    6.4990 H           1 ROC       0.0729
     51 H2         -1.8932    6.4690    6.3845 H           1 ROC       0.0774
     52 H3         -3.0015    8.6959    5.8967 H           1 ROC       0.0657
     53 H4         -4.9730    9.9175    5.2089 H           1 ROC       0.0652
     54 H5         -7.0079    8.7309    4.6208 H           1 ROC       0.0657
     55 H6         -7.0743    6.3085    4.7059 H           1 ROC       0.0653
     56 H7         -2.4715    2.1198    6.6528 H           1 ROC       0.1882
     57 H8         -3.7672   -0.1344    5.6596 H           1 ROC       0.0826
     58 H9         -2.3253   -1.3897    7.2709 H           1 ROC       0.0551
     59 H10        -1.8439    0.1313    8.0273 H           1 ROC       0.0551
     60 H11         0.8663   -0.7992    5.8571 H           1 ROC       0.1814
     61 H12         0.1565   -1.4709    7.2169 H           1 ROC       0.1814
     62 H13        -6.4691    2.6694    9.1568 H           1 ROC       0.0672
     63 H14        -7.2528    2.9263   10.9872 H           1 ROC       0.2101
     64 H15        -6.0488   -0.2878    9.7828 H           1 ROC       0.0606
     65 H16        -4.2714    1.7106    8.5689 H           1 ROC       0.1857
     66 H17        -5.4044    0.6540   11.8842 H           1 ROC       0.0449
     67 H18        -4.7599    2.1041   11.1407 H           1 ROC       0.0449
     68 H19        -2.4139    2.2339   10.8322 H           1 ROC       0.0557
     69 H20        -4.1282   -1.6055   11.2478 H           1 ROC       0.0557
     70 H21        -0.2182    1.2462   10.8143 H           1 ROC       0.0599
     71 H22        -1.9152   -2.5774   11.2292 H           1 ROC       0.0599
     72 H23         0.0423   -1.1584   11.0069 H           1 ROC       0.0559
     73 H24        -8.4748   -0.0778    9.9516 H           1 ROC       0.2057
     74 H25        -7.4160    0.7920    7.6464 H           1 ROC       0.0841
     75 H26        -8.4621    2.1042    8.1124 H           1 ROC       0.0841
     76 H27        -8.1827   -1.4691    8.1626 H           1 ROC       0.1100
     77 H28        -9.3404   -2.2986   10.0285 H           1 ROC       0.0348
     78 H29       -10.1980   -2.9315    8.6482 H           1 ROC       0.0348
     79 H30       -11.6198   -2.1242   10.5719 H           1 ROC       0.0309
     80 H31       -12.7070   -2.3394    8.3925 H           1 ROC       0.0268
     81 H32       -12.2104   -0.7146    7.9222 H           1 ROC       0.0268
     82 H33       -14.1326   -1.4181   10.1818 H           1 ROC       0.0265
     83 H34       -14.5298   -0.6399    8.6429 H           1 ROC       0.0265
     84 H35       -14.3757    1.0099   10.5319 H           1 ROC       0.0265
     85 H36       -13.2273    1.3628    9.2401 H           1 ROC       0.0265
     86 H37       -12.6412   -0.0082   11.9135 H           1 ROC       0.0270
     87 H38       -12.1043    1.5939   11.4247 H           1 ROC       0.0270
     88 H39       -10.3605   -0.2584   11.3477 H           1 ROC       0.0355
     89 H40       -10.8112    1.2289    8.7286 H           1 ROC       0.0818
     90 H41        -9.9639    1.8013   10.1536 H           1 ROC       0.0818
     91 H42        -9.5163   -2.7524    6.5629 H           1 ROC       0.1859
     92 H43       -10.5318   -3.6622    3.3772 H           1 ROC       0.0254
     93 H44       -10.4227   -4.2429    5.0453 H           1 ROC       0.0254
     94 H45        -8.9951   -3.5535    4.2546 H           1 ROC       0.0254
     95 H46       -10.2708   -1.2437    2.8361 H           1 ROC       0.0254
     96 H47        -8.8528   -0.9500    3.8616 H           1 ROC       0.0254
     97 H48       -10.3305    0.0019    4.0672 H           1 ROC       0.0254
     98 H49       -12.5019   -2.1298    4.0510 H           1 ROC       0.0254
     99 H50       -12.3182   -0.9799    5.3812 H           1 ROC       0.0254
    100 H51       -12.3773   -2.7158    5.7176 H           1 ROC       0.0254
@<TRIPOS>BOND
     1     1     2   2
     2     1     4   1
     3    13     1  am
     4     4     3  ar
     5     3    12  ar
     6     4     5  ar
     7     5     6  ar
     8     6    11  ar
     9     7     8  ar
    10    11     7  ar
    11     9     8  ar
    12    10     9  ar
    13    12    10  ar
    14    12    11  ar
    15    14    13   1
    16    15    14   1
    17    14    17   1
    18    15    16   2
    19    24    15  am
    20    17    18   1
    21    18    19   2
    22    18    20  am
    23    21    22   1
    24    23    21   1
    25    21    33   1
    26    23    24   1
    27    23    25   1
    28    25    26   1
    29    26    27  ar
    30    26    28  ar
    31    27    29  ar
    32    28    30  ar
    33    29    31  ar
    34    30    31  ar
    35    33    32   1
    36    32    34   1
    37    32    44   1
    38    34    35   1
    39    34    37   1
    40    35    36   2
    41    35    45  am
    42    37    38   1
    43    38    39   1
    44    38    43   1
    45    39    40   1
    46    40    41   1
    47    41    42   1
    48    42    43   1
    49    43    44   1
    50    45    46   1
    51    46    47   1
    52    46    48   1
    53    46    49   1
    54     5    50   1
    55     6    51   1
    56     7    52   1
    57     8    53   1
    58     9    54   1
    59    10    55   1
    60    13    56   1
    61    14    57   1
    62    17    58   1
    63    17    59   1
    64    20    60   1
    65    20    61   1
    66    21    62   1
    67    22    63   1
    68    23    64   1
    69    24    65   1
    70    25    66   1
    71    25    67   1
    72    27    68   1
    73    28    69   1
    74    29    70   1
    75    30    71   1
    76    31    72   1
    77    32    73   1
    78    33    74   1
    79    33    75   1
    80    34    76   1
    81    37    77   1
    82    37    78   1
    83    38    79   1
    84    39    80   1
    85    39    81   1
    86    40    82   1
    87    40    83   1
    88    41    84   1
    89    41    85   1
    90    42    86   1
    91    42    87   1
    92    43    88   1
    93    44    89   1
    94    44    90   1
    95    45    91   1
    96    47    92   1
    97    47    93   1
    98    47    94   1
    99    48    95   1
   100    48    96   1
   101    48    97   1
   102    49    98   1
   103    49    99   1
   104    49   100   1
@<TRIPOS>SUBSTRUCTURE
     1  ROC      1

