@<TRIPOS>MOLECULE
3pww_ligand_038
   100   104
SMALL
GAST_HUCK
****
This file was generated by PARSER (from files_GN.cpp)

@<TRIPOS>ATOM
      1 C          -6.0448    2.1147    8.1760 C.2         1 ROC       0.2293
      2 O          -5.9108    0.9658    8.5773 O.2         1 ROC      -0.3762
      3 N1         -8.2434    2.1405    9.0676 N.ar        1 ROC      -0.2737
      4 C2         -7.2919    2.7228    8.2835 C.ar        1 ROC       0.1219
      5 C3         -7.6334    3.9318    7.6319 C.ar        1 ROC      -0.0136
      6 C4         -8.9054    4.5040    7.8199 C.ar        1 ROC      -0.0314
      7 C5        -11.1405    4.4041    8.8720 C.ar        1 ROC      -0.0444
      8 C6        -12.0488    3.7301    9.7110 C.ar        1 ROC      -0.0546
      9 C7        -11.6799    2.5205   10.3280 C.ar        1 ROC      -0.0545
     10 C8        -10.4010    1.9776   10.1092 C.ar        1 ROC      -0.0370
     11 C4A        -9.8520    3.8703    8.6504 C.ar        1 ROC       0.0097
     12 C8A        -9.4848    2.6493    9.2753 C.ar        1 ROC       0.0527
     13 N          -4.9851    2.7764    7.7179 N.am        1 ROC      -0.2600
     14 CA         -3.6383    2.2837    7.6384 C.3         1 ROC       0.1473
     15 C1         -2.7684    3.4512    7.5676 C.2         1 ROC       0.2045
     16 O1         -2.4982    3.9508    6.4819 O.2         1 ROC      -0.3943
     17 CB         -3.4474    1.2482    6.4671 C.3         1 ROC       0.0773
     18 CG         -3.0625   -0.0756    6.9216 C.2         1 ROC       0.1780
     19 OD1        -3.8108   -1.0346    6.7940 O.2         1 ROC      -0.3970
     20 ND2        -1.8902   -0.2681    7.4900 N.am        1 ROC      -0.3007
     21 C9         -0.6086    5.0587   10.0394 C.3         1 ROC       0.1194
     22 O2         -0.9315    5.8582   11.1705 O.3         1 ROC      -0.3840
     23 CA1        -1.6352    5.2538    8.8548 C.3         1 ROC       0.0823
     24 N2         -2.4406    4.0697    8.6967 N.am        1 ROC      -0.2772
     25 CB1        -2.6099    6.4658    9.0320 C.3         1 ROC       0.0066
     26 CG1        -3.4322    6.7956    7.8333 C.ar        1 ROC      -0.0408
     27 CD1        -2.8152    7.2588    6.6467 C.ar        1 ROC      -0.0603
     28 CD2        -4.8426    6.6833    7.8621 C.ar        1 ROC      -0.0603
     29 CE1        -3.5861    7.5794    5.5136 C.ar        1 ROC      -0.0686
     30 CE2        -5.6141    7.0246    6.7356 C.ar        1 ROC      -0.0686
     31 CZ         -4.9856    7.4667    5.5599 C.ar        1 ROC      -0.0687
     32 N11         1.6072    6.5427    9.5052 N.4         1 ROC       0.2562
     33 CM          0.9144    5.2097    9.6962 C.3         1 ROC      -0.0008
     34 C21         2.6488    6.9390   10.5306 C.3         1 ROC       0.0688
     35 CC          2.2191    7.2328   11.9004 C.2         1 ROC       0.2251
     36 O3          1.0410    7.4368   12.1471 O.2         1 ROC      -0.3909
     37 C31         3.5362    8.0883    9.9442 C.3         1 ROC       0.0113
     38 C3A         2.7422    9.3103    9.3873 C.3         1 ROC      -0.0261
     39 C41         2.1791   10.2699   10.4820 C.3         1 ROC      -0.0494
     40 C51         1.3663   11.4406    9.8755 C.3         1 ROC      -0.0528
     41 C61         0.2250   10.9288    8.9623 C.3         1 ROC      -0.0526
     42 C71         0.7711    9.9955    7.8489 C.3         1 ROC      -0.0451
     43 C7A         1.6390    8.8167    8.3967 C.3         1 ROC       0.0024
     44 C81         0.7722    7.6789    9.0153 C.3         1 ROC      -0.0266
     45 N3          3.1368    7.3311   12.8569 N.am        1 ROC      -0.2771
     46 CD          2.9830    7.6758   14.2510 C.3         1 ROC       0.0448
     47 C11         4.4115    7.6024   14.8742 C.3         1 ROC      -0.0396
     48 C22         2.0593    6.6605   14.9932 C.3         1 ROC      -0.0396
     49 C32         2.4358    9.1283   14.4075 C.3         1 ROC      -0.0396
     50 H1         -6.9761    4.3995    7.0054 H           1 ROC       0.0729
     51 H2         -9.1348    5.3815    7.3440 H           1 ROC       0.0774
     52 H3        -11.4237    5.2814    8.4281 H           1 ROC       0.0657
     53 H4        -12.9800    4.1200    9.8691 H           1 ROC       0.0652
     54 H5        -12.3408    2.0357   10.9359 H           1 ROC       0.0657
     55 H6        -10.1387    1.0972   10.5580 H           1 ROC       0.0653
     56 H7         -5.1146    3.7049    7.4769 H           1 ROC       0.1882
     57 H8         -3.4181    1.7869    8.5941 H           1 ROC       0.0826
     58 H9         -2.6773    1.5687    5.7599 H           1 ROC       0.0551
     59 H10        -4.3713    1.1745    5.8852 H           1 ROC       0.0551
     60 H11        -1.6285   -1.1532    7.7914 H           1 ROC       0.1814
     61 H12        -1.2785    0.4795    7.6086 H           1 ROC       0.1814
     62 H13        -0.7224    4.0284   10.3970 H           1 ROC       0.0672
     63 H14        -0.3165    5.5616   11.8756 H           1 ROC       0.2101
     64 H15        -1.0622    5.4054    7.9384 H           1 ROC       0.0606
     65 H16        -2.8009    3.6943    9.5173 H           1 ROC       0.1857
     66 H17        -2.0450    7.3622    9.2821 H           1 ROC       0.0449
     67 H18        -3.2555    6.2608    9.8921 H           1 ROC       0.0449
     68 H19        -1.8009    7.3668    6.5958 H           1 ROC       0.0557
     69 H20        -5.3166    6.3549    8.7055 H           1 ROC       0.0557
     70 H21        -3.1271    7.9009    4.6570 H           1 ROC       0.0599
     71 H22        -6.6322    6.9447    6.7725 H           1 ROC       0.0599
     72 H23        -5.5464    7.7063    4.7420 H           1 ROC       0.0559
     73 H24         2.1918    6.3485    8.6951 H           1 ROC       0.2057
     74 H25         1.0789    4.6471    8.7708 H           1 ROC       0.0841
     75 H26         1.4547    4.6452   10.4631 H           1 ROC       0.0841
     76 H27         3.3126    6.0753   10.6170 H           1 ROC       0.1100
     77 H28         4.1139    7.6650    9.1166 H           1 ROC       0.0348
     78 H29         4.2694    8.4362   10.6756 H           1 ROC       0.0348
     79 H30         3.4547    9.9028    8.8032 H           1 ROC       0.0309
     80 H31         3.0064   10.6754   11.0678 H           1 ROC       0.0268
     81 H32         1.5221    9.7347   11.1637 H           1 ROC       0.0268
     82 H33         2.0340   12.0841    9.2962 H           1 ROC       0.0265
     83 H34         0.9384   12.0393   10.6840 H           1 ROC       0.0265
     84 H35        -0.2767   11.7844    8.4982 H           1 ROC       0.0265
     85 H36        -0.5192   10.3970    9.5620 H           1 ROC       0.0265
     86 H37         1.3848   10.5975    7.1699 H           1 ROC       0.0270
     87 H38        -0.0680    9.6054    7.2648 H           1 ROC       0.0270
     88 H39         2.1473    8.3834    7.5255 H           1 ROC       0.0355
     89 H40         0.1494    8.0700    9.8169 H           1 ROC       0.0818
     90 H41         0.1236    7.3218    8.2177 H           1 ROC       0.0818
     91 H42         4.0477    7.1599   12.5689 H           1 ROC       0.1859
     92 H43         4.3902    7.8472   15.9385 H           1 ROC       0.0254
     93 H44         5.0870    8.3039   14.3776 H           1 ROC       0.0254
     94 H45         4.8292    6.5979   14.7645 H           1 ROC       0.0254
     95 H46         2.0704    6.8448   16.0697 H           1 ROC       0.0254
     96 H47         2.3940    5.6355   14.8160 H           1 ROC       0.0254
     97 H48         1.0262    6.7478   14.6529 H           1 ROC       0.0254
     98 H49         2.4208    9.4245   15.4583 H           1 ROC       0.0254
     99 H50         1.4177    9.2090   14.0238 H           1 ROC       0.0254
    100 H51         3.0626    9.8348   13.8593 H           1 ROC       0.0254
@<TRIPOS>BOND
     1     1     2   2
     2     1     4   1
     3    13     1  am
     4     4     3  ar
     5     3    12  ar
     6     4     5  ar
     7     5     6  ar
     8     6    11  ar
     9     7     8  ar
    10    11     7  ar
    11     9     8  ar
    12    10     9  ar
    13    12    10  ar
    14    12    11  ar
    15    14    13   1
    16    15    14   1
    17    14    17   1
    18    15    16   2
    19    24    15  am
    20    17    18   1
    21    18    19   2
    22    18    20  am
    23    21    22   1
    24    23    21   1
    25    21    33   1
    26    23    24   1
    27    23    25   1
    28    25    26   1
    29    26    27  ar
    30    26    28  ar
    31    27    29  ar
    32    28    30  ar
    33    29    31  ar
    34    30    31  ar
    35    33    32   1
    36    32    34   1
    37    32    44   1
    38    34    35   1
    39    34    37   1
    40    35    36   2
    41    35    45  am
    42    37    38   1
    43    38    39   1
    44    38    43   1
    45    39    40   1
    46    40    41   1
    47    41    42   1
    48    42    43   1
    49    43    44   1
    50    45    46   1
    51    46    47   1
    52    46    48   1
    53    46    49   1
    54     5    50   1
    55     6    51   1
    56     7    52   1
    57     8    53   1
    58     9    54   1
    59    10    55   1
    60    13    56   1
    61    14    57   1
    62    17    58   1
    63    17    59   1
    64    20    60   1
    65    20    61   1
    66    21    62   1
    67    22    63   1
    68    23    64   1
    69    24    65   1
    70    25    66   1
    71    25    67   1
    72    27    68   1
    73    28    69   1
    74    29    70   1
    75    30    71   1
    76    31    72   1
    77    32    73   1
    78    33    74   1
    79    33    75   1
    80    34    76   1
    81    37    77   1
    82    37    78   1
    83    38    79   1
    84    39    80   1
    85    39    81   1
    86    40    82   1
    87    40    83   1
    88    41    84   1
    89    41    85   1
    90    42    86   1
    91    42    87   1
    92    43    88   1
    93    44    89   1
    94    44    90   1
    95    45    91   1
    96    47    92   1
    97    47    93   1
    98    47    94   1
    99    48    95   1
   100    48    96   1
   101    48    97   1
   102    49    98   1
   103    49    99   1
   104    49   100   1
@<TRIPOS>SUBSTRUCTURE
     1  ROC      1

