@<TRIPOS>MOLECULE
3pww_ligand_029
   100   104
SMALL
GAST_HUCK
****
This file was generated by PARSER (from files_GN.cpp)

@<TRIPOS>ATOM
      1 C          -3.8513    2.3421    7.0322 C.2         1 ROC       0.2293
      2 O          -3.3999    2.2932    8.1693 O.2         1 ROC      -0.3762
      3 N1         -4.3982    4.6176    7.4162 N.ar        1 ROC      -0.2737
      4 C2         -4.2762    3.5792    6.5401 C.ar        1 ROC       0.1219
      5 C3         -4.6335    3.8203    5.1889 C.ar        1 ROC      -0.0136
      6 C4         -5.1109    5.0863    4.8009 C.ar        1 ROC      -0.0314
      7 C5         -5.7099    7.4053    5.4077 C.ar        1 ROC      -0.0444
      8 C6         -5.8196    8.4059    6.3898 C.ar        1 ROC      -0.0546
      9 C7         -5.4543    8.1294    7.7196 C.ar        1 ROC      -0.0545
     10 C8         -4.9633    6.8603    8.0696 C.ar        1 ROC      -0.0370
     11 C4A        -5.2237    6.1227    5.7472 C.ar        1 ROC       0.0097
     12 C8A        -4.8457    5.8565    7.0879 C.ar        1 ROC       0.0527
     13 N          -3.9790    1.2164    6.3283 N.am        1 ROC      -0.2600
     14 CA         -3.7381   -0.1417    6.7483 C.3         1 ROC       0.1473
     15 C1         -4.7428   -0.5438    7.7339 C.2         1 ROC       0.2045
     16 O1         -5.7057   -1.2113    7.3679 O.2         1 ROC      -0.3943
     17 CB         -2.2759   -0.4842    7.1983 C.3         1 ROC       0.0773
     18 CG         -1.2239   -0.3106    6.2102 C.2         1 ROC       0.1780
     19 OD1        -1.3438    0.4472    5.2588 O.2         1 ROC      -0.3970
     20 ND2        -0.0587   -0.9041    6.3664 N.am        1 ROC      -0.3007
     21 C9         -6.9956    0.1771    9.9130 C.3         1 ROC       0.1194
     22 O2         -7.9152   -0.8947    9.6789 O.3         1 ROC      -0.3840
     23 CA1        -5.5506   -0.4426   10.0709 C.3         1 ROC       0.0823
     24 N2         -4.6436   -0.1483    8.9985 N.am        1 ROC      -0.2772
     25 CB1        -4.8803   -0.1463   11.4609 C.3         1 ROC       0.0066
     26 CG1        -4.0457    1.0871   11.5549 C.ar        1 ROC      -0.0408
     27 CD1        -4.5344    2.3462   11.1285 C.ar        1 ROC      -0.0603
     28 CD2        -2.7312    1.0167   12.0809 C.ar        1 ROC      -0.0603
     29 CE1        -3.7175    3.4906   11.1839 C.ar        1 ROC      -0.0686
     30 CE2        -1.9168    2.1573   12.1407 C.ar        1 ROC      -0.0686
     31 CZ         -2.4058    3.3931   11.6779 C.ar        1 ROC      -0.0687
     32 N11        -8.2992    2.3311    9.0625 N.4         1 ROC       0.2562
     33 CM         -7.2474    1.2715    8.8150 C.3         1 ROC      -0.0008
     34 C21        -9.5871    1.9051    9.7224 C.3         1 ROC       0.0688
     35 CC        -10.3132    0.7840    9.1097 C.2         1 ROC       0.2251
     36 O3        -10.4299    0.7327    7.8953 O.2         1 ROC      -0.3909
     37 C31       -10.4956    3.1407   10.0334 C.3         1 ROC       0.0113
     38 C3A       -10.6854    4.1641    8.8712 C.3         1 ROC      -0.0261
     39 C41       -11.8072    3.7695    7.8582 C.3         1 ROC      -0.0494
     40 C51       -11.9479    4.7992    6.7080 C.3         1 ROC      -0.0528
     41 C61       -10.5941    5.0176    5.9869 C.3         1 ROC      -0.0526
     42 C71        -9.4931    5.4649    6.9825 C.3         1 ROC      -0.0451
     43 C7A        -9.3147    4.4931    8.1933 C.3         1 ROC       0.0024
     44 C81        -8.5119    3.2021    7.8507 C.3         1 ROC      -0.0266
     45 N3        -10.8000   -0.1903    9.8802 N.am        1 ROC      -0.2771
     46 CD        -11.6759   -1.2850    9.5268 C.3         1 ROC       0.0448
     47 C11       -13.1050   -0.7162    9.2735 C.3         1 ROC      -0.0396
     48 C22       -11.7093   -2.2342   10.7640 C.3         1 ROC      -0.0396
     49 C32       -11.1892   -2.1128    8.2956 C.3         1 ROC      -0.0396
     50 H1         -4.5547    3.0939    4.4769 H           1 ROC       0.0729
     51 H2         -5.3860    5.2402    3.8273 H           1 ROC       0.0774
     52 H3         -5.9991    7.6189    4.4518 H           1 ROC       0.0657
     53 H4         -6.1754    9.3314    6.1431 H           1 ROC       0.0652
     54 H5         -5.5550    8.8542    8.4330 H           1 ROC       0.0657
     55 H6         -4.7061    6.6672    9.0403 H           1 ROC       0.0653
     56 H7         -4.3219    1.3057    5.4247 H           1 ROC       0.1882
     57 H8         -3.9108   -0.7417    5.8477 H           1 ROC       0.0826
     58 H9         -2.2737   -1.5341    7.5048 H           1 ROC       0.0551
     59 H10        -1.9934    0.1003    8.0771 H           1 ROC       0.0551
     60 H11         0.6581   -0.7523    5.7266 H           1 ROC       0.1814
     61 H12         0.0844   -1.5102    7.1135 H           1 ROC       0.1814
     62 H13        -7.2712    0.6121   10.8695 H           1 ROC       0.0672
     63 H14        -7.8640   -1.4656   10.4756 H           1 ROC       0.2101
     64 H15        -5.6572   -1.5343   10.0586 H           1 ROC       0.0606
     65 H16        -3.8570    0.3697    9.2340 H           1 ROC       0.1857
     66 H17        -4.2695   -1.0170   11.7188 H           1 ROC       0.0449
     67 H18        -5.6388   -0.0961   12.2442 H           1 ROC       0.0449
     68 H19        -5.4870    2.4419   10.7674 H           1 ROC       0.0557
     69 H20        -2.3535    0.1259   12.4150 H           1 ROC       0.0557
     70 H21        -4.0716    4.3926   10.8654 H           1 ROC       0.0599
     71 H22        -0.9640    2.0837   12.5110 H           1 ROC       0.0599
     72 H23        -1.7968    4.2108   11.6979 H           1 ROC       0.0559
     73 H24        -7.8672    2.9631    9.7416 H           1 ROC       0.2057
     74 H25        -7.4612    0.7645    7.8667 H           1 ROC       0.0841
     75 H26        -6.3108    1.8167    8.6754 H           1 ROC       0.0841
     76 H27        -9.2963    1.5674   10.7199 H           1 ROC       0.1100
     77 H28       -10.0182    3.6865   10.8559 H           1 ROC       0.0348
     78 H29       -11.4694    2.8150   10.4103 H           1 ROC       0.0348
     79 H30       -11.0347    5.0910    9.3408 H           1 ROC       0.0309
     80 H31       -12.7639    3.6960    8.3841 H           1 ROC       0.0268
     81 H32       -11.5990    2.8007    7.4111 H           1 ROC       0.0268
     82 H33       -12.3113    5.7511    7.1079 H           1 ROC       0.0265
     83 H34       -12.6865    4.4326    5.9902 H           1 ROC       0.0265
     84 H35       -10.7161    5.7836    5.2170 H           1 ROC       0.0265
     85 H36       -10.2895    4.0923    5.4919 H           1 ROC       0.0265
     86 H37        -9.7646    6.4528    7.3669 H           1 ROC       0.0270
     87 H38        -8.5449    5.5765    6.4504 H           1 ROC       0.0270
     88 H39        -8.7101    5.0361    8.9293 H           1 ROC       0.0355
     89 H40        -9.0141    2.6504    7.0536 H           1 ROC       0.0818
     90 H41        -7.5414    3.5198    7.4608 H           1 ROC       0.0818
     91 H42       -10.5868   -0.1268   10.8279 H           1 ROC       0.1859
     92 H43       -13.8171   -1.5211    9.0811 H           1 ROC       0.0254
     93 H44       -13.1073   -0.0457    8.4114 H           1 ROC       0.0254
     94 H45       -13.4539   -0.1509   10.1414 H           1 ROC       0.0254
     95 H46       -12.4023   -3.0622   10.6006 H           1 ROC       0.0254
     96 H47       -12.0256   -1.6967   11.6610 H           1 ROC       0.0254
     97 H48       -10.7181   -2.6536   10.9525 H           1 ROC       0.0254
     98 H49       -11.7855   -3.0206    8.1827 H           1 ROC       0.0254
     99 H50       -10.1439   -2.4005    8.4149 H           1 ROC       0.0254
    100 H51       -11.2879   -1.5481    7.3697 H           1 ROC       0.0254
@<TRIPOS>BOND
     1     1     2   2
     2     1     4   1
     3    13     1  am
     4     4     3  ar
     5     3    12  ar
     6     4     5  ar
     7     5     6  ar
     8     6    11  ar
     9     7     8  ar
    10    11     7  ar
    11     9     8  ar
    12    10     9  ar
    13    12    10  ar
    14    12    11  ar
    15    14    13   1
    16    15    14   1
    17    14    17   1
    18    15    16   2
    19    24    15  am
    20    17    18   1
    21    18    19   2
    22    18    20  am
    23    21    22   1
    24    23    21   1
    25    21    33   1
    26    23    24   1
    27    23    25   1
    28    25    26   1
    29    26    27  ar
    30    26    28  ar
    31    27    29  ar
    32    28    30  ar
    33    29    31  ar
    34    30    31  ar
    35    33    32   1
    36    32    34   1
    37    32    44   1
    38    34    35   1
    39    34    37   1
    40    35    36   2
    41    35    45  am
    42    37    38   1
    43    38    39   1
    44    38    43   1
    45    39    40   1
    46    40    41   1
    47    41    42   1
    48    42    43   1
    49    43    44   1
    50    45    46   1
    51    46    47   1
    52    46    48   1
    53    46    49   1
    54     5    50   1
    55     6    51   1
    56     7    52   1
    57     8    53   1
    58     9    54   1
    59    10    55   1
    60    13    56   1
    61    14    57   1
    62    17    58   1
    63    17    59   1
    64    20    60   1
    65    20    61   1
    66    21    62   1
    67    22    63   1
    68    23    64   1
    69    24    65   1
    70    25    66   1
    71    25    67   1
    72    27    68   1
    73    28    69   1
    74    29    70   1
    75    30    71   1
    76    31    72   1
    77    32    73   1
    78    33    74   1
    79    33    75   1
    80    34    76   1
    81    37    77   1
    82    37    78   1
    83    38    79   1
    84    39    80   1
    85    39    81   1
    86    40    82   1
    87    40    83   1
    88    41    84   1
    89    41    85   1
    90    42    86   1
    91    42    87   1
    92    43    88   1
    93    44    89   1
    94    44    90   1
    95    45    91   1
    96    47    92   1
    97    47    93   1
    98    47    94   1
    99    48    95   1
   100    48    96   1
   101    48    97   1
   102    49    98   1
   103    49    99   1
   104    49   100   1
@<TRIPOS>SUBSTRUCTURE
     1  ROC      1

