@<TRIPOS>MOLECULE
3pww_ligand_017
   100   104
SMALL
GAST_HUCK
****
This file was generated by PARSER (from files_GN.cpp)

@<TRIPOS>ATOM
      1 C          -5.8231    4.0509    6.7788 C.2         1 ROC       0.2293
      2 O          -5.6658    4.4473    7.9269 O.2         1 ROC      -0.3762
      3 N1         -6.9047    4.2608    4.6662 N.ar        1 ROC      -0.2737
      4 C2         -6.8371    4.5918    5.9873 C.ar        1 ROC       0.1219
      5 C3         -7.8032    5.5028    6.4844 C.ar        1 ROC      -0.0136
      6 C4         -8.7695    6.0481    5.6196 C.ar        1 ROC      -0.0314
      7 C5         -9.7541    6.1902    3.3565 C.ar        1 ROC      -0.0444
      8 C6         -9.7470    5.7802    2.0107 C.ar        1 ROC      -0.0546
      9 C7         -8.7815    4.8616    1.5572 C.ar        1 ROC      -0.0545
     10 C8         -7.8208    4.3469    2.4473 C.ar        1 ROC      -0.0370
     11 C4A        -8.7980    5.6770    4.2591 C.ar        1 ROC       0.0097
     12 C8A        -7.8263    4.7496    3.7981 C.ar        1 ROC       0.0527
     13 N          -5.0114    3.1066    6.3016 N.am        1 ROC      -0.2600
     14 CA         -3.9371    2.4538    7.0075 C.3         1 ROC       0.1473
     15 C1         -2.8327    3.4042    7.1517 C.2         1 ROC       0.2045
     16 O1         -2.2712    3.7850    6.1314 O.2         1 ROC      -0.3943
     17 CB         -3.5418    1.1267    6.2636 C.3         1 ROC       0.0773
     18 CG         -3.2621    0.0087    7.1472 C.2         1 ROC       0.1780
     19 OD1        -4.0428   -0.9315    7.2322 O.2         1 ROC      -0.3970
     20 ND2        -2.1612   -0.0533    7.8627 N.am        1 ROC      -0.3007
     21 C9         -0.8004    4.8746    9.8334 C.3         1 ROC       0.1194
     22 O2         -1.2352    5.6057   10.9746 O.3         1 ROC      -0.3840
     23 CA1        -1.7220    5.1249    8.5742 C.3         1 ROC       0.0823
     24 N2         -2.5834    3.9898    8.3241 N.am        1 ROC      -0.2772
     25 CB1        -2.6484    6.3858    8.6992 C.3         1 ROC       0.0066
     26 CG1        -3.4902    6.7863    7.5296 C.ar        1 ROC      -0.0408
     27 CD1        -3.0596    6.6488    6.1848 C.ar        1 ROC      -0.0603
     28 CD2        -4.7476    7.3971    7.7551 C.ar        1 ROC      -0.0603
     29 CE1        -3.9090    6.9882    5.1117 C.ar        1 ROC      -0.0686
     30 CE2        -5.5733    7.7952    6.6885 C.ar        1 ROC      -0.0686
     31 CZ         -5.1698    7.5532    5.3640 C.ar        1 ROC      -0.0687
     32 N11         1.4730    6.3701    9.5117 N.4         1 ROC       0.2562
     33 CM          0.7561    5.0412    9.6588 C.3         1 ROC      -0.0008
     34 C21         2.5065    6.7397   10.5611 C.3         1 ROC       0.0688
     35 CC          2.0521    7.0633   11.9163 C.2         1 ROC       0.2251
     36 O3          0.8506    7.0224   12.1799 O.2         1 ROC      -0.3909
     37 C31         3.4276    7.8616    9.9679 C.3         1 ROC       0.0113
     38 C3A         2.6621    9.1144    9.4434 C.3         1 ROC      -0.0261
     39 C41         2.1437   10.0748   10.5631 C.3         1 ROC      -0.0494
     40 C51         1.3838   11.2886    9.9747 C.3         1 ROC      -0.0528
     41 C61         0.2072   10.8351    9.0743 C.3         1 ROC      -0.0526
     42 C71         0.6926    9.8867    7.9459 C.3         1 ROC      -0.0451
     43 C7A         1.5348    8.6744    8.4569 C.3         1 ROC       0.0024
     44 C81         0.6579    7.5315    9.0487 C.3         1 ROC      -0.0266
     45 N3          2.9502    7.3391   12.8645 N.am        1 ROC      -0.2771
     46 CD          2.8148    7.8002   14.2301 C.3         1 ROC       0.0448
     47 C11         3.7538    9.0428   14.3600 C.3         1 ROC      -0.0396
     48 C22         3.3371    6.6600   15.1537 C.3         1 ROC      -0.0396
     49 C32         1.3838    8.2249   14.6988 C.3         1 ROC      -0.0396
     50 H1         -7.8028    5.7889    7.4658 H           1 ROC       0.0729
     51 H2         -9.4499    6.7188    5.9881 H           1 ROC       0.0774
     52 H3        -10.4623    6.8588    3.6719 H           1 ROC       0.0657
     53 H4        -10.4450    6.1474    1.3614 H           1 ROC       0.0652
     54 H5         -8.7801    4.5655    0.5781 H           1 ROC       0.0657
     55 H6         -7.1209    3.6832    2.1097 H           1 ROC       0.0653
     56 H7         -5.1917    2.7954    5.3999 H           1 ROC       0.1882
     57 H8         -4.3251    2.1748    7.9939 H           1 ROC       0.0826
     58 H9         -2.6723    1.2787    5.6148 H           1 ROC       0.0551
     59 H10        -4.3591    0.8308    5.5966 H           1 ROC       0.0551
     60 H11        -1.9791   -0.8418    8.3987 H           1 ROC       0.1814
     61 H12        -1.5075    0.6618    7.8163 H           1 ROC       0.1814
     62 H13        -0.9415    3.8279   10.1208 H           1 ROC       0.0672
     63 H14        -0.6632    5.2899   11.7137 H           1 ROC       0.2101
     64 H15        -1.0548    5.2719    7.7249 H           1 ROC       0.0606
     65 H16        -3.1154    3.6932    9.0785 H           1 ROC       0.1857
     66 H17        -2.0584    7.2609    8.9542 H           1 ROC       0.0449
     67 H18        -3.3029    6.2032    9.5558 H           1 ROC       0.0449
     68 H19        -2.1353    6.2870    5.9649 H           1 ROC       0.0557
     69 H20        -5.0793    7.5598    8.7073 H           1 ROC       0.0557
     70 H21        -3.6057    6.8236    4.1481 H           1 ROC       0.0599
     71 H22        -6.4780    8.2341    6.8732 H           1 ROC       0.0599
     72 H23        -5.7898    7.8011    4.5882 H           1 ROC       0.0559
     73 H24         2.0676    6.1957    8.7033 H           1 ROC       0.2057
     74 H25         1.0277    4.4610    8.7711 H           1 ROC       0.0841
     75 H26         1.2143    4.5003   10.4942 H           1 ROC       0.0841
     76 H27         3.1500    5.8673   10.6800 H           1 ROC       0.1100
     77 H28         3.9771    7.4262    9.1285 H           1 ROC       0.0348
     78 H29         4.1880    8.1791   10.6882 H           1 ROC       0.0348
     79 H30         3.3905    9.6948    8.8669 H           1 ROC       0.0309
     80 H31         2.9912   10.4398   11.1495 H           1 ROC       0.0268
     81 H32         1.4666    9.5573   11.2394 H           1 ROC       0.0268
     82 H33         2.0738   11.9040    9.3890 H           1 ROC       0.0265
     83 H34         0.9950   11.9047   10.7904 H           1 ROC       0.0265
     84 H35        -0.2609   11.7160    8.6241 H           1 ROC       0.0265
     85 H36        -0.5495   10.3300    9.6806 H           1 ROC       0.0265
     86 H37         1.3081   10.4715    7.2528 H           1 ROC       0.0270
     87 H38        -0.1762    9.5302    7.3812 H           1 ROC       0.0270
     88 H39         2.0271    8.2554    7.5695 H           1 ROC       0.0355
     89 H40         0.0294    7.9082    9.8573 H           1 ROC       0.0818
     90 H41         0.0180    7.2021    8.2289 H           1 ROC       0.0818
     91 H42         3.8709    7.2194   12.5851 H           1 ROC       0.1859
     92 H43         3.7860    9.4066   15.3918 H           1 ROC       0.0254
     93 H44         3.3982    9.8562   13.7207 H           1 ROC       0.0254
     94 H45         4.7766    8.7950   14.0565 H           1 ROC       0.0254
     95 H46         3.2972    6.9549   16.2063 H           1 ROC       0.0254
     96 H47         4.3728    6.4072   14.9115 H           1 ROC       0.0254
     97 H48         2.7268    5.7611   15.0274 H           1 ROC       0.0254
     98 H49         1.4165    8.6605   15.7030 H           1 ROC       0.0254
     99 H50         0.7105    7.3651   14.7315 H           1 ROC       0.0254
    100 H51         0.9655    8.9714   14.0210 H           1 ROC       0.0254
@<TRIPOS>BOND
     1     1     2   2
     2     1     4   1
     3    13     1  am
     4     4     3  ar
     5     3    12  ar
     6     4     5  ar
     7     5     6  ar
     8     6    11  ar
     9     7     8  ar
    10    11     7  ar
    11     9     8  ar
    12    10     9  ar
    13    12    10  ar
    14    12    11  ar
    15    14    13   1
    16    15    14   1
    17    14    17   1
    18    15    16   2
    19    24    15  am
    20    17    18   1
    21    18    19   2
    22    18    20  am
    23    21    22   1
    24    23    21   1
    25    21    33   1
    26    23    24   1
    27    23    25   1
    28    25    26   1
    29    26    27  ar
    30    26    28  ar
    31    27    29  ar
    32    28    30  ar
    33    29    31  ar
    34    30    31  ar
    35    33    32   1
    36    32    34   1
    37    32    44   1
    38    34    35   1
    39    34    37   1
    40    35    36   2
    41    35    45  am
    42    37    38   1
    43    38    39   1
    44    38    43   1
    45    39    40   1
    46    40    41   1
    47    41    42   1
    48    42    43   1
    49    43    44   1
    50    45    46   1
    51    46    47   1
    52    46    48   1
    53    46    49   1
    54     5    50   1
    55     6    51   1
    56     7    52   1
    57     8    53   1
    58     9    54   1
    59    10    55   1
    60    13    56   1
    61    14    57   1
    62    17    58   1
    63    17    59   1
    64    20    60   1
    65    20    61   1
    66    21    62   1
    67    22    63   1
    68    23    64   1
    69    24    65   1
    70    25    66   1
    71    25    67   1
    72    27    68   1
    73    28    69   1
    74    29    70   1
    75    30    71   1
    76    31    72   1
    77    32    73   1
    78    33    74   1
    79    33    75   1
    80    34    76   1
    81    37    77   1
    82    37    78   1
    83    38    79   1
    84    39    80   1
    85    39    81   1
    86    40    82   1
    87    40    83   1
    88    41    84   1
    89    41    85   1
    90    42    86   1
    91    42    87   1
    92    43    88   1
    93    44    89   1
    94    44    90   1
    95    45    91   1
    96    47    92   1
    97    47    93   1
    98    47    94   1
    99    48    95   1
   100    48    96   1
   101    48    97   1
   102    49    98   1
   103    49    99   1
   104    49   100   1
@<TRIPOS>SUBSTRUCTURE
     1  ROC      1

