@<TRIPOS>MOLECULE
3pww_ligand_023
   100   104
SMALL
GAST_HUCK
****
This file was generated by PARSER (from files_GN.cpp)

@<TRIPOS>ATOM
      1 C          -2.1381    2.4866   10.8430 C.2         1 ROC       0.2293
      2 O          -2.3736    3.1815   11.8264 O.2         1 ROC      -0.3762
      3 N1         -4.0152    1.1766   11.4385 N.ar        1 ROC      -0.2737
      4 C2         -2.9565    1.3837   10.6035 C.ar        1 ROC       0.1219
      5 C3         -2.7852    0.4789    9.5282 C.ar        1 ROC      -0.0136
      6 C4         -3.6880   -0.5833    9.3504 C.ar        1 ROC      -0.0314
      7 C5         -5.7123   -1.7941   10.1008 C.ar        1 ROC      -0.0444
      8 C6         -6.7735   -1.9181   11.0222 C.ar        1 ROC      -0.0546
      9 C7         -6.9009   -1.0016   12.0825 C.ar        1 ROC      -0.0545
     10 C8         -5.9773    0.0475   12.2235 C.ar        1 ROC      -0.0370
     11 C4A        -4.7743   -0.7533   10.2403 C.ar        1 ROC       0.0097
     12 C8A        -4.9117    0.1708   11.3088 C.ar        1 ROC       0.0527
     13 N          -1.1632    2.8632   10.0129 N.am        1 ROC      -0.2600
     14 CA         -0.4180    4.0942   10.1083 C.3         1 ROC       0.1473
     15 C1         -1.3124    5.2354    9.9014 C.2         1 ROC       0.2045
     16 O1         -1.3493    6.0920   10.7727 O.2         1 ROC      -0.3943
     17 CB          0.7837    4.0985    9.1166 C.3         1 ROC       0.0773
     18 CG          1.6940    5.2155    9.3276 C.2         1 ROC       0.1780
     19 OD1         1.3668    6.3521    9.0182 O.2         1 ROC      -0.3970
     20 ND2         2.8801    5.0476    9.8676 N.am        1 ROC      -0.3007
     21 C9         -4.4953    5.8580    8.5531 C.3         1 ROC       0.1194
     22 O2         -4.6232    4.7959    9.5012 O.3         1 ROC      -0.3840
     23 CA1        -3.0019    6.3658    8.4642 C.3         1 ROC       0.0823
     24 N2         -2.0850    5.3120    8.8204 N.am        1 ROC      -0.2772
     25 CB1        -2.4958    6.9362    7.0992 C.3         1 ROC       0.0066
     26 CG1        -3.0610    8.1823    6.5049 C.ar        1 ROC      -0.0408
     27 CD1        -4.0811    8.9682    7.0971 C.ar        1 ROC      -0.0603
     28 CD2        -2.5220    8.6136    5.2659 C.ar        1 ROC      -0.0603
     29 CE1        -4.5691   10.1226    6.4541 C.ar        1 ROC      -0.0686
     30 CE2        -2.9982    9.7718    4.6277 C.ar        1 ROC      -0.0686
     31 CZ         -4.0321   10.5176    5.2143 C.ar        1 ROC      -0.0687
     32 N11        -6.6060    4.9383    7.4610 N.4         1 ROC       0.2562
     33 CM         -5.1673    5.3519    7.2460 C.3         1 ROC      -0.0008
     34 C21        -6.9844    3.6030    6.8613 C.3         1 ROC       0.0688
     35 CC         -6.8522    3.4344    5.4042 C.2         1 ROC       0.2251
     36 O3         -7.0372    2.3095    4.9499 O.2         1 ROC      -0.3909
     37 C31        -8.3842    3.1817    7.4116 C.3         1 ROC       0.0113
     38 C3A        -9.5030    4.2525    7.2409 C.3         1 ROC      -0.0261
     39 C41       -10.0868    4.3131    5.7913 C.3         1 ROC      -0.0494
     40 C51       -11.2027    5.3767    5.6618 C.3         1 ROC      -0.0528
     41 C61       -10.6917    6.7714    6.0986 C.3         1 ROC      -0.0526
     42 C71       -10.1092    6.7419    7.5377 C.3         1 ROC      -0.0451
     43 C7A        -9.0181    5.6448    7.7649 C.3         1 ROC       0.0024
     44 C81        -7.6144    6.0228    7.2053 C.3         1 ROC      -0.0266
     45 N3         -6.4896    4.4394    4.6162 N.am        1 ROC      -0.2771
     46 CD         -6.2629    4.5650    3.1941 C.3         1 ROC       0.0448
     47 C11        -6.5598    3.2983    2.3319 C.3         1 ROC      -0.0396
     48 C22        -4.7602    4.9662    3.0260 C.3         1 ROC      -0.0396
     49 C32        -7.1738    5.7379    2.7143 C.3         1 ROC      -0.0396
     50 H1         -2.0118    0.5827    8.8673 H           1 ROC       0.0729
     51 H2         -3.5529   -1.2279    8.5691 H           1 ROC       0.0774
     52 H3         -5.6385   -2.4673    9.3332 H           1 ROC       0.0657
     53 H4         -7.4491   -2.6776   10.9228 H           1 ROC       0.0652
     54 H5         -7.6673   -1.1003   12.7540 H           1 ROC       0.0657
     55 H6         -6.0803    0.7140   12.9937 H           1 ROC       0.0653
     56 H7         -0.9638    2.2988    9.2486 H           1 ROC       0.1882
     57 H8          0.0180    4.1281   11.1160 H           1 ROC       0.0826
     58 H9          0.4226    4.1240    8.0884 H           1 ROC       0.0551
     59 H10         1.3332    3.1587    9.2373 H           1 ROC       0.0551
     60 H11         3.4748    5.8041    9.9780 H           1 ROC       0.1814
     61 H12         3.1623    4.1651   10.1484 H           1 ROC       0.1814
     62 H13        -5.1066    6.6812    8.9337 H           1 ROC       0.0672
     63 H14        -4.2343    5.1294   10.3360 H           1 ROC       0.2101
     64 H15        -2.9095    7.1817    9.1892 H           1 ROC       0.0606
     65 H16        -2.0125    4.5776    8.1836 H           1 ROC       0.1857
     66 H17        -2.5904    6.1400    6.3618 H           1 ROC       0.0449
     67 H18        -1.4236    7.1269    7.2248 H           1 ROC       0.0449
     68 H19        -4.4807    8.7201    8.0020 H           1 ROC       0.0557
     69 H20        -1.7695    8.0836    4.8216 H           1 ROC       0.0557
     70 H21        -5.3042   10.6809    6.8903 H           1 ROC       0.0599
     71 H22        -2.5872   10.0722    3.7432 H           1 ROC       0.0599
     72 H23        -4.3882   11.3531    4.7455 H           1 ROC       0.0559
     73 H24        -6.6907    4.7707    8.4627 H           1 ROC       0.2057
     74 H25        -4.5682    4.5177    6.8733 H           1 ROC       0.0841
     75 H26        -5.1141    6.1373    6.4865 H           1 ROC       0.0841
     76 H27        -6.2811    2.8792    7.2880 H           1 ROC       0.1100
     77 H28        -8.2732    2.9970    8.4843 H           1 ROC       0.0348
     78 H29        -8.7078    2.2291    6.9735 H           1 ROC       0.0348
     79 H30       -10.3332    3.9392    7.8859 H           1 ROC       0.0309
     80 H31       -10.4986    3.3373    5.5232 H           1 ROC       0.0268
     81 H32        -9.3017    4.5537    5.0758 H           1 ROC       0.0268
     82 H33       -12.0600    5.0897    6.2749 H           1 ROC       0.0265
     83 H34       -11.5366    5.4254    4.6221 H           1 ROC       0.0265
     84 H35       -11.5213    7.4818    6.0639 H           1 ROC       0.0265
     85 H36        -9.9282    7.1170    5.3980 H           1 ROC       0.0265
     86 H37       -10.9343    6.5515    8.2312 H           1 ROC       0.0270
     87 H38        -9.7030    7.7259    7.7815 H           1 ROC       0.0270
     88 H39        -8.8983    5.5552    8.8514 H           1 ROC       0.0355
     89 H40        -7.6901    6.2616    6.1456 H           1 ROC       0.0818
     90 H41        -7.2894    6.9333    7.7128 H           1 ROC       0.0818
     91 H42        -6.3365    5.2714    5.0777 H           1 ROC       0.1859
     92 H43        -6.3869    3.4935    1.2744 H           1 ROC       0.0254
     93 H44        -7.6032    2.9944    2.4519 H           1 ROC       0.0254
     94 H45        -5.9204    2.4664    2.6388 H           1 ROC       0.0254
     95 H46        -4.5253    5.1895    1.9836 H           1 ROC       0.0254
     96 H47        -4.1145    4.1504    3.3560 H           1 ROC       0.0254
     97 H48        -4.5241    5.8509    3.6232 H           1 ROC       0.0254
     98 H49        -6.9932    5.9803    1.6640 H           1 ROC       0.0254
     99 H50        -6.9923    6.6409    3.3049 H           1 ROC       0.0254
    100 H51        -8.2290    5.4707    2.8235 H           1 ROC       0.0254
@<TRIPOS>BOND
     1     1     2   2
     2     1     4   1
     3    13     1  am
     4     4     3  ar
     5     3    12  ar
     6     4     5  ar
     7     5     6  ar
     8     6    11  ar
     9     7     8  ar
    10    11     7  ar
    11     9     8  ar
    12    10     9  ar
    13    12    10  ar
    14    12    11  ar
    15    14    13   1
    16    15    14   1
    17    14    17   1
    18    15    16   2
    19    24    15  am
    20    17    18   1
    21    18    19   2
    22    18    20  am
    23    21    22   1
    24    23    21   1
    25    21    33   1
    26    23    24   1
    27    23    25   1
    28    25    26   1
    29    26    27  ar
    30    26    28  ar
    31    27    29  ar
    32    28    30  ar
    33    29    31  ar
    34    30    31  ar
    35    33    32   1
    36    32    34   1
    37    32    44   1
    38    34    35   1
    39    34    37   1
    40    35    36   2
    41    35    45  am
    42    37    38   1
    43    38    39   1
    44    38    43   1
    45    39    40   1
    46    40    41   1
    47    41    42   1
    48    42    43   1
    49    43    44   1
    50    45    46   1
    51    46    47   1
    52    46    48   1
    53    46    49   1
    54     5    50   1
    55     6    51   1
    56     7    52   1
    57     8    53   1
    58     9    54   1
    59    10    55   1
    60    13    56   1
    61    14    57   1
    62    17    58   1
    63    17    59   1
    64    20    60   1
    65    20    61   1
    66    21    62   1
    67    22    63   1
    68    23    64   1
    69    24    65   1
    70    25    66   1
    71    25    67   1
    72    27    68   1
    73    28    69   1
    74    29    70   1
    75    30    71   1
    76    31    72   1
    77    32    73   1
    78    33    74   1
    79    33    75   1
    80    34    76   1
    81    37    77   1
    82    37    78   1
    83    38    79   1
    84    39    80   1
    85    39    81   1
    86    40    82   1
    87    40    83   1
    88    41    84   1
    89    41    85   1
    90    42    86   1
    91    42    87   1
    92    43    88   1
    93    44    89   1
    94    44    90   1
    95    45    91   1
    96    47    92   1
    97    47    93   1
    98    47    94   1
    99    48    95   1
   100    48    96   1
   101    48    97   1
   102    49    98   1
   103    49    99   1
   104    49   100   1
@<TRIPOS>SUBSTRUCTURE
     1  ROC      1

