@<TRIPOS>MOLECULE
3pww_ligand_089
   100   104
SMALL
GAST_HUCK
****
This file was generated by PARSER (from files_GN.cpp)

@<TRIPOS>ATOM
      1 C          -0.3358    6.9090    9.7668 C.2         1 ROC       0.2293
      2 O          -0.3580    6.5204   10.9297 O.2         1 ROC      -0.3762
      3 N1         -0.2071    9.1116   10.6153 N.ar        1 ROC      -0.2737
      4 C2         -0.1865    8.2731    9.5376 C.ar        1 ROC       0.1219
      5 C3          0.0108    8.8543    8.2589 C.ar        1 ROC      -0.0136
      6 C4          0.1939   10.2445    8.1475 C.ar        1 ROC      -0.0314
      7 C5          0.3678   12.4607    9.2208 C.ar        1 ROC      -0.0444
      8 C6          0.3220   13.2403   10.3906 C.ar        1 ROC      -0.0546
      9 C7          0.0879   12.6310   11.6379 C.ar        1 ROC      -0.0545
     10 C8         -0.0946   11.2379   11.7246 C.ar        1 ROC      -0.0370
     11 C4A         0.1739   11.0627    9.2937 C.ar        1 ROC       0.0097
     12 C8A        -0.0477   10.4553   10.5561 C.ar        1 ROC       0.0527
     13 N          -0.4527    6.0233    8.7800 N.am        1 ROC      -0.2600
     14 CA         -0.5569    4.5836    8.8429 C.3         1 ROC       0.1473
     15 C1         -1.7052    4.0399    9.5717 C.2         1 ROC       0.2045
     16 O1         -2.2687    4.7103   10.4306 O.2         1 ROC      -0.3943
     17 CB          0.8034    3.8683    9.1381 C.3         1 ROC       0.0773
     18 CG          1.5764    4.3740   10.2592 C.2         1 ROC       0.1780
     19 OD1         1.2050    4.1929   11.4090 O.2         1 ROC      -0.3970
     20 ND2         2.6989    5.0348   10.0606 N.am        1 ROC      -0.3007
     21 C9         -4.6963    3.2760    9.0985 C.3         1 ROC       0.1194
     22 O2         -5.9403    2.5939    9.2827 O.3         1 ROC      -0.3840
     23 CA1        -3.5211    2.3227    9.4996 C.3         1 ROC       0.0823
     24 N2         -2.2443    2.8910    9.1589 N.am        1 ROC      -0.2772
     25 CB1        -3.5408    1.8708   10.9968 C.3         1 ROC       0.0066
     26 CG1        -4.5782    0.8527   11.3403 C.ar        1 ROC      -0.0408
     27 CD1        -5.6634    1.1625   12.1952 C.ar        1 ROC      -0.0603
     28 CD2        -4.4703   -0.4697   10.8431 C.ar        1 ROC      -0.0603
     29 CE1        -6.6198    0.1830   12.5322 C.ar        1 ROC      -0.0686
     30 CE2        -5.4280   -1.4476   11.1771 C.ar        1 ROC      -0.0686
     31 CZ         -6.5045   -1.1178   12.0161 C.ar        1 ROC      -0.0687
     32 N11        -5.3072    5.1590    7.4938 N.4         1 ROC       0.2562
     33 CM         -4.6460    3.8069    7.6247 C.3         1 ROC      -0.0008
     34 C21        -6.4790    5.2034    6.5560 C.3         1 ROC       0.0688
     35 CC         -6.2238    4.8753    5.1534 C.2         1 ROC       0.2251
     36 O3         -5.0744    4.7246    4.7565 O.2         1 ROC      -0.3909
     37 C31        -7.2235    6.5632    6.7385 C.3         1 ROC       0.0113
     38 C3A        -6.3131    7.8271    6.6422 C.3         1 ROC      -0.0261
     39 C41        -5.9562    8.2278    5.1762 C.3         1 ROC      -0.0494
     40 C51        -5.0617    9.4895    5.1236 C.3         1 ROC      -0.0528
     41 C61        -3.7713    9.3070    5.9608 C.3         1 ROC      -0.0526
     42 C71        -4.0923    8.9032    7.4236 C.3         1 ROC      -0.0451
     43 C7A        -5.0452    7.6724    7.5477 C.3         1 ROC       0.0024
     44 C81        -4.3404    6.3003    7.3356 C.3         1 ROC      -0.0266
     45 N3         -7.2660    4.7020    4.3462 N.am        1 ROC      -0.2771
     46 CD         -7.3693    4.3143    2.9588 C.3         1 ROC       0.0448
     47 C11        -7.9193    5.5529    2.1915 C.3         1 ROC      -0.0396
     48 C22        -8.4179    3.1582    2.9248 C.3         1 ROC      -0.0396
     49 C32        -6.0590    3.8161    2.2701 C.3         1 ROC      -0.0396
     50 H1          0.0448    8.2851    7.4112 H           1 ROC       0.0729
     51 H2          0.3503   10.6569    7.2235 H           1 ROC       0.0774
     52 H3          0.5390   12.9135    8.3204 H           1 ROC       0.0657
     53 H4          0.4575   14.2501   10.3321 H           1 ROC       0.0652
     54 H5          0.0481   13.2022   12.4840 H           1 ROC       0.0657
     55 H6         -0.2631   10.7998   12.6349 H           1 ROC       0.0653
     56 H7         -0.4469    6.3870    7.8774 H           1 ROC       0.1882
     57 H8         -0.7655    4.3462    7.7953 H           1 ROC       0.0826
     58 H9          1.4206    3.9475    8.2386 H           1 ROC       0.0551
     59 H10         0.6408    2.7964    9.2960 H           1 ROC       0.0551
     60 H11         3.2059    5.3875   10.8156 H           1 ROC       0.1814
     61 H12         3.0083    5.1984    9.1487 H           1 ROC       0.1814
     62 H13        -4.6913    4.1268    9.7847 H           1 ROC       0.0672
     63 H14        -6.6248    3.2968    9.3239 H           1 ROC       0.2101
     64 H15        -3.6066    1.4357    8.8771 H           1 ROC       0.0606
     65 H16        -1.7532    2.4329    8.4539 H           1 ROC       0.1857
     66 H17        -3.6566    2.7572   11.6296 H           1 ROC       0.0449
     67 H18        -2.5679    1.4390   11.2534 H           1 ROC       0.0449
     68 H19        -5.7667    2.1023   12.5780 H           1 ROC       0.0557
     69 H20        -3.6846   -0.7329   10.2411 H           1 ROC       0.0557
     70 H21        -7.3963    0.4185   13.1532 H           1 ROC       0.0599
     71 H22        -5.3358   -2.3961   10.8117 H           1 ROC       0.0599
     72 H23        -7.1996   -1.8283   12.2607 H           1 ROC       0.0559
     73 H24        -5.7342    5.3261    8.4017 H           1 ROC       0.2057
     74 H25        -5.1112    3.0485    6.9810 H           1 ROC       0.0841
     75 H26        -3.6085    3.8643    7.2767 H           1 ROC       0.0841
     76 H27        -7.1687    4.4347    6.9092 H           1 ROC       0.1100
     77 H28        -7.6680    6.5500    7.7385 H           1 ROC       0.0348
     78 H29        -8.0617    6.6515    6.0365 H           1 ROC       0.0348
     79 H30        -6.9018    8.6572    7.0517 H           1 ROC       0.0309
     80 H31        -6.8757    8.4243    4.6196 H           1 ROC       0.0268
     81 H32        -5.4325    7.4158    4.6724 H           1 ROC       0.0268
     82 H33        -5.6213   10.3512    5.4967 H           1 ROC       0.0265
     83 H34        -4.7899    9.6961    4.0864 H           1 ROC       0.0265
     84 H35        -3.2103   10.2451    5.9606 H           1 ROC       0.0265
     85 H36        -3.1403    8.5447    5.4983 H           1 ROC       0.0265
     86 H37        -4.5661    9.7584    7.9137 H           1 ROC       0.0270
     87 H38        -3.1580    8.7080    7.9556 H           1 ROC       0.0270
     88 H39        -5.3937    7.6618    8.5866 H           1 ROC       0.0355
     89 H40        -3.8448    6.2743    6.3627 H           1 ROC       0.0818
     90 H41        -3.5586    6.2119    8.0968 H           1 ROC       0.0818
     91 H42        -8.1297    4.8652    4.7678 H           1 ROC       0.1859
     92 H43        -8.0863    5.3189    1.1366 H           1 ROC       0.0254
     93 H44        -7.2070    6.3809    2.2517 H           1 ROC       0.0254
     94 H45        -8.8686    5.8893    2.6217 H           1 ROC       0.0254
     95 H46        -8.6362    2.8525    1.8962 H           1 ROC       0.0254
     96 H47        -9.3605    3.4689    3.3921 H           1 ROC       0.0254
     97 H48        -8.0426    2.2844    3.4720 H           1 ROC       0.0254
     98 H49        -6.2610    3.4560    1.2552 H           1 ROC       0.0254
     99 H50        -5.6232    2.9913    2.8362 H           1 ROC       0.0254
    100 H51        -5.3244    4.6211    2.2053 H           1 ROC       0.0254
@<TRIPOS>BOND
     1     1     2   2
     2     1     4   1
     3    13     1  am
     4     4     3  ar
     5     3    12  ar
     6     4     5  ar
     7     5     6  ar
     8     6    11  ar
     9     7     8  ar
    10    11     7  ar
    11     9     8  ar
    12    10     9  ar
    13    12    10  ar
    14    12    11  ar
    15    14    13   1
    16    15    14   1
    17    14    17   1
    18    15    16   2
    19    24    15  am
    20    17    18   1
    21    18    19   2
    22    18    20  am
    23    21    22   1
    24    23    21   1
    25    21    33   1
    26    23    24   1
    27    23    25   1
    28    25    26   1
    29    26    27  ar
    30    26    28  ar
    31    27    29  ar
    32    28    30  ar
    33    29    31  ar
    34    30    31  ar
    35    33    32   1
    36    32    34   1
    37    32    44   1
    38    34    35   1
    39    34    37   1
    40    35    36   2
    41    35    45  am
    42    37    38   1
    43    38    39   1
    44    38    43   1
    45    39    40   1
    46    40    41   1
    47    41    42   1
    48    42    43   1
    49    43    44   1
    50    45    46   1
    51    46    47   1
    52    46    48   1
    53    46    49   1
    54     5    50   1
    55     6    51   1
    56     7    52   1
    57     8    53   1
    58     9    54   1
    59    10    55   1
    60    13    56   1
    61    14    57   1
    62    17    58   1
    63    17    59   1
    64    20    60   1
    65    20    61   1
    66    21    62   1
    67    22    63   1
    68    23    64   1
    69    24    65   1
    70    25    66   1
    71    25    67   1
    72    27    68   1
    73    28    69   1
    74    29    70   1
    75    30    71   1
    76    31    72   1
    77    32    73   1
    78    33    74   1
    79    33    75   1
    80    34    76   1
    81    37    77   1
    82    37    78   1
    83    38    79   1
    84    39    80   1
    85    39    81   1
    86    40    82   1
    87    40    83   1
    88    41    84   1
    89    41    85   1
    90    42    86   1
    91    42    87   1
    92    43    88   1
    93    44    89   1
    94    44    90   1
    95    45    91   1
    96    47    92   1
    97    47    93   1
    98    47    94   1
    99    48    95   1
   100    48    96   1
   101    48    97   1
   102    49    98   1
   103    49    99   1
   104    49   100   1
@<TRIPOS>SUBSTRUCTURE
     1  ROC      1

