@<TRIPOS>MOLECULE
3pww_ligand_064
   100   104
SMALL
GAST_HUCK
****
This file was generated by PARSER (from files_GN.cpp)

@<TRIPOS>ATOM
      1 C          -4.1034    0.3591   10.2327 C.2         1 ROC       0.2293
      2 O          -4.5518    0.4925   11.3676 O.2         1 ROC      -0.3762
      3 N1         -6.0778   -0.8652    9.6657 N.ar        1 ROC      -0.2737
      4 C2         -4.8515   -0.3786    9.3025 C.ar        1 ROC       0.1219
      5 C3         -4.4117   -0.6648    7.9854 C.ar        1 ROC      -0.0136
      6 C4         -5.2223   -1.4162    7.1109 C.ar        1 ROC      -0.0314
      7 C5         -7.3185   -2.6536    6.6929 C.ar        1 ROC      -0.0444
      8 C6         -8.5658   -3.1105    7.1612 C.ar        1 ROC      -0.0546
      9 C7         -8.9805   -2.8067    8.4701 C.ar        1 ROC      -0.0545
     10 C8         -8.1501   -2.0505    9.3186 C.ar        1 ROC      -0.0370
     11 C4A        -6.4777   -1.8925    7.5362 C.ar        1 ROC       0.0097
     12 C8A        -6.8961   -1.5931    8.8589 C.ar        1 ROC       0.0527
     13 N          -2.9461    0.9345    9.9288 N.am        1 ROC      -0.2600
     14 CA         -2.0914    1.7282   10.7713 C.3         1 ROC       0.1473
     15 C1         -2.3758    3.1420   10.5131 C.2         1 ROC       0.2045
     16 O1         -2.8922    3.8075   11.4119 O.2         1 ROC      -0.3943
     17 CB         -0.6038    1.3292   10.5054 C.3         1 ROC       0.0773
     18 CG          0.3565    2.3341   10.9050 C.2         1 ROC       0.1780
     19 OD1         0.5073    2.6072   12.0898 O.2         1 ROC      -0.3970
     20 ND2         0.9817    3.0685   10.0111 N.am        1 ROC      -0.3007
     21 C9         -0.7750    5.8179    9.4231 C.3         1 ROC       0.1194
     22 O2         -0.7558    5.9123   10.8495 O.3         1 ROC      -0.3840
     23 CA1        -2.0951    5.0930    8.9647 C.3         1 ROC       0.0823
     24 N2         -2.0400    3.7014    9.3567 N.am        1 ROC      -0.2772
     25 CB1        -3.4342    5.8192    9.3562 C.3         1 ROC       0.0066
     26 CG1        -4.6570    5.4441    8.5722 C.ar        1 ROC      -0.0408
     27 CD1        -5.4702    6.4319    7.9589 C.ar        1 ROC      -0.0603
     28 CD2        -5.0725    4.0927    8.4447 C.ar        1 ROC      -0.0603
     29 CE1        -6.6330    6.0844    7.2403 C.ar        1 ROC      -0.0686
     30 CE2        -6.2115    3.7390    7.7052 C.ar        1 ROC      -0.0686
     31 CZ         -6.9997    4.7321    7.1057 C.ar        1 ROC      -0.0687
     32 N11         0.9131    7.7553    8.8714 N.4         1 ROC       0.2562
     33 CM         -0.5094    7.2373    8.8272 C.3         1 ROC      -0.0008
     34 C21         1.7153    7.5219   10.1363 C.3         1 ROC       0.0688
     35 CC          1.1964    8.0794   11.3914 C.2         1 ROC       0.2251
     36 O3          0.1238    8.6706   11.3914 O.2         1 ROC      -0.3909
     37 C31         3.2020    7.9268    9.8605 C.3         1 ROC       0.0113
     38 C3A         3.3865    9.3920    9.3664 C.3         1 ROC      -0.0261
     39 C41         3.2271   10.4658   10.4897 C.3         1 ROC      -0.0494
     40 C51         3.4027   11.9034    9.9474 C.3         1 ROC      -0.0528
     41 C61         2.4064   12.1757    8.7928 C.3         1 ROC      -0.0526
     42 C71         2.5624   11.1341    7.6511 C.3         1 ROC      -0.0451
     43 C7A         2.4615    9.6510    8.1324 C.3         1 ROC       0.0024
     44 C81         0.9966    9.1804    8.3871 C.3         1 ROC      -0.0266
     45 N3          1.8960    7.9376   12.5115 N.am        1 ROC      -0.2771
     46 CD          1.6973    8.4577   13.8492 C.3         1 ROC       0.0448
     47 C11         3.0830    9.0005   14.3140 C.3         1 ROC      -0.0396
     48 C22         1.2894    7.2456   14.7362 C.3         1 ROC      -0.0396
     49 C32         0.6458    9.6039   14.0212 C.3         1 ROC      -0.0396
     50 H1         -3.5056   -0.3419    7.6448 H           1 ROC       0.0729
     51 H2         -4.8896   -1.6127    6.1650 H           1 ROC       0.0774
     52 H3         -7.0320   -2.8834    5.7371 H           1 ROC       0.0657
     53 H4         -9.1711   -3.6633    6.5473 H           1 ROC       0.0652
     54 H5         -9.8879   -3.1414    8.8055 H           1 ROC       0.0657
     55 H6         -8.4605   -1.8394   10.2695 H           1 ROC       0.0653
     56 H7         -2.6468    0.8542    9.0115 H           1 ROC       0.1882
     57 H8         -2.2860    1.5064   11.8316 H           1 ROC       0.0826
     58 H9         -0.4703    1.1033    9.4413 H           1 ROC       0.0551
     59 H10        -0.3755    0.4066   11.0484 H           1 ROC       0.0551
     60 H11         1.5484    3.8009   10.2904 H           1 ROC       0.1814
     61 H12         0.8424    2.9003    9.0695 H           1 ROC       0.1814
     62 H13         0.0653    5.1966    9.0973 H           1 ROC       0.0672
     63 H14        -0.4701    5.0315   11.1723 H           1 ROC       0.2101
     64 H15        -2.0590    5.0771    7.8724 H           1 ROC       0.0606
     65 H16        -1.6431    3.0985    8.7046 H           1 ROC       0.1857
     66 H17        -3.2716    6.8974    9.2590 H           1 ROC       0.0449
     67 H18        -3.6391    5.6360   10.4165 H           1 ROC       0.0449
     68 H19        -5.2331    7.4260    8.0464 H           1 ROC       0.0557
     69 H20        -4.5492    3.3452    8.8941 H           1 ROC       0.0557
     70 H21        -7.2142    6.8088    6.8166 H           1 ROC       0.0599
     71 H22        -6.4736    2.7543    7.6103 H           1 ROC       0.0599
     72 H23        -7.8324    4.4774    6.5745 H           1 ROC       0.0559
     73 H24         1.4032    7.2034    8.1567 H           1 ROC       0.2057
     74 H25        -1.1816    7.9441    9.3204 H           1 ROC       0.0841
     75 H26        -0.8022    7.1957    7.7733 H           1 ROC       0.0841
     76 H27         1.7530    6.4404   10.2907 H           1 ROC       0.1100
     77 H28         3.5886    7.2633    9.0793 H           1 ROC       0.0348
     78 H29         3.8271    7.7541   10.7384 H           1 ROC       0.0348
     79 H30         4.4245    9.4737    9.0230 H           1 ROC       0.0309
     80 H31         3.9636   10.2857   11.2765 H           1 ROC       0.0268
     81 H32         2.2402   10.4156   10.9441 H           1 ROC       0.0268
     82 H33         4.4274   12.0413    9.5920 H           1 ROC       0.0265
     83 H34         3.2272   12.6190   10.7554 H           1 ROC       0.0265
     84 H35         2.5836   13.1796    8.4008 H           1 ROC       0.0265
     85 H36         1.3835   12.1506    9.1784 H           1 ROC       0.0265
     86 H37         3.5418   11.2855    7.1863 H           1 ROC       0.0270
     87 H38         1.8098   11.3306    6.8826 H           1 ROC       0.0270
     88 H39         2.8389    9.0332    7.3095 H           1 ROC       0.0355
     89 H40         0.5150    9.8496    9.0995 H           1 ROC       0.0818
     90 H41         0.4563    9.2719    7.4409 H           1 ROC       0.0818
     91 H42         2.6942    7.3897   12.4208 H           1 ROC       0.1859
     92 H43         3.0458    9.3236   15.3573 H           1 ROC       0.0254
     93 H44         3.3838    9.8555   13.7045 H           1 ROC       0.0254
     94 H45         3.8554    8.2328   14.2267 H           1 ROC       0.0254
     95 H46         1.2147    7.5353   15.7868 H           1 ROC       0.0254
     96 H47         2.0205    6.4365   14.6569 H           1 ROC       0.0254
     97 H48         0.3193    6.8599   14.4177 H           1 ROC       0.0254
     98 H49         0.6510    9.9859   15.0456 H           1 ROC       0.0254
     99 H50        -0.3628    9.2455   13.8076 H           1 ROC       0.0254
    100 H51         0.8703   10.4367   13.3508 H           1 ROC       0.0254
@<TRIPOS>BOND
     1     1     2   2
     2     1     4   1
     3    13     1  am
     4     4     3  ar
     5     3    12  ar
     6     4     5  ar
     7     5     6  ar
     8     6    11  ar
     9     7     8  ar
    10    11     7  ar
    11     9     8  ar
    12    10     9  ar
    13    12    10  ar
    14    12    11  ar
    15    14    13   1
    16    15    14   1
    17    14    17   1
    18    15    16   2
    19    24    15  am
    20    17    18   1
    21    18    19   2
    22    18    20  am
    23    21    22   1
    24    23    21   1
    25    21    33   1
    26    23    24   1
    27    23    25   1
    28    25    26   1
    29    26    27  ar
    30    26    28  ar
    31    27    29  ar
    32    28    30  ar
    33    29    31  ar
    34    30    31  ar
    35    33    32   1
    36    32    34   1
    37    32    44   1
    38    34    35   1
    39    34    37   1
    40    35    36   2
    41    35    45  am
    42    37    38   1
    43    38    39   1
    44    38    43   1
    45    39    40   1
    46    40    41   1
    47    41    42   1
    48    42    43   1
    49    43    44   1
    50    45    46   1
    51    46    47   1
    52    46    48   1
    53    46    49   1
    54     5    50   1
    55     6    51   1
    56     7    52   1
    57     8    53   1
    58     9    54   1
    59    10    55   1
    60    13    56   1
    61    14    57   1
    62    17    58   1
    63    17    59   1
    64    20    60   1
    65    20    61   1
    66    21    62   1
    67    22    63   1
    68    23    64   1
    69    24    65   1
    70    25    66   1
    71    25    67   1
    72    27    68   1
    73    28    69   1
    74    29    70   1
    75    30    71   1
    76    31    72   1
    77    32    73   1
    78    33    74   1
    79    33    75   1
    80    34    76   1
    81    37    77   1
    82    37    78   1
    83    38    79   1
    84    39    80   1
    85    39    81   1
    86    40    82   1
    87    40    83   1
    88    41    84   1
    89    41    85   1
    90    42    86   1
    91    42    87   1
    92    43    88   1
    93    44    89   1
    94    44    90   1
    95    45    91   1
    96    47    92   1
    97    47    93   1
    98    47    94   1
    99    48    95   1
   100    48    96   1
   101    48    97   1
   102    49    98   1
   103    49    99   1
   104    49   100   1
@<TRIPOS>SUBSTRUCTURE
     1  ROC      1

