@<TRIPOS>MOLECULE
3pww_ligand_019
   100   104
SMALL
GAST_HUCK
****
This file was generated by PARSER (from files_GN.cpp)

@<TRIPOS>ATOM
      1 C          -3.3555   -0.6903   10.0145 C.2         1 ROC       0.2293
      2 O          -2.1914   -0.5870   10.3848 O.2         1 ROC      -0.3762
      3 N1         -3.7565   -2.0592   11.9148 N.ar        1 ROC      -0.2737
      4 C2         -4.2321   -1.4589   10.7845 C.ar        1 ROC       0.1219
      5 C3         -5.6041   -1.6512   10.4764 C.ar        1 ROC      -0.0136
      6 C4         -6.4183   -2.4264   11.3254 C.ar        1 ROC      -0.0314
      7 C5         -6.6627   -3.7911   13.3731 C.ar        1 ROC      -0.0444
      8 C6         -6.0748   -4.3608   14.5184 C.ar        1 ROC      -0.0546
      9 C7         -4.7086   -4.1678   14.7832 C.ar        1 ROC      -0.0545
     10 C8         -3.9215   -3.3910   13.9098 C.ar        1 ROC      -0.0370
     11 C4A        -5.8797   -3.0176   12.4853 C.ar        1 ROC       0.0097
     12 C8A        -4.5018   -2.8188   12.7613 C.ar        1 ROC       0.0527
     13 N          -3.7417   -0.0607    8.9004 N.am        1 ROC      -0.2600
     14 CA         -2.9540    0.7730    8.0215 C.3         1 ROC       0.1473
     15 C1         -3.5345    2.1156    7.9017 C.2         1 ROC       0.2045
     16 O1         -4.6071    2.3617    8.4491 O.2         1 ROC      -0.3943
     17 CB         -2.8041    0.0289    6.6452 C.3         1 ROC       0.0773
     18 CG         -1.4805    0.1056    6.0717 C.2         1 ROC       0.1780
     19 OD1        -1.2492    0.8258    5.1041 O.2         1 ROC      -0.3970
     20 ND2        -0.4806   -0.6186    6.5439 N.am        1 ROC      -0.3007
     21 C9         -2.8238    5.1594    8.6759 C.3         1 ROC       0.1194
     22 O2         -3.6528    6.2362    9.1187 O.3         1 ROC      -0.3840
     23 CA1        -3.1729    4.5196    7.2832 C.3         1 ROC       0.0823
     24 N2         -2.8727    3.0989    7.2878 N.am        1 ROC      -0.2772
     25 CB1        -4.6119    4.8739    6.7907 C.3         1 ROC       0.0066
     26 CG1        -4.8684    4.4971    5.3760 C.ar        1 ROC      -0.0408
     27 CD1        -5.6725    3.3785    5.0734 C.ar        1 ROC      -0.0603
     28 CD2        -4.3385    5.2705    4.3185 C.ar        1 ROC      -0.0603
     29 CE1        -5.9584    3.0470    3.7320 C.ar        1 ROC      -0.0686
     30 CE2        -4.6382    4.9459    2.9780 C.ar        1 ROC      -0.0686
     31 CZ         -5.4375    3.8270    2.6897 C.ar        1 ROC      -0.0687
     32 N11        -0.7895    6.8903    8.2458 N.4         1 ROC       0.2562
     33 CM         -1.3264    5.5859    8.8066 C.3         1 ROC      -0.0008
     34 C21         0.5697    7.2602    8.8158 C.3         1 ROC       0.0688
     35 CC          0.6490    7.5268   10.2526 C.2         1 ROC       0.2251
     36 O3         -0.3002    7.2421   10.9851 O.2         1 ROC      -0.3909
     37 C31         1.1877    8.4240    7.9746 C.3         1 ROC       0.0113
     38 C3A         0.2801    9.6798    7.8564 C.3         1 ROC      -0.0261
     39 C41         0.2025   10.5500    9.1510 C.3         1 ROC      -0.0494
     40 C51        -0.6972   11.7908    8.9503 C.3         1 ROC      -0.0528
     41 C61        -2.1163   11.3790    8.4839 C.3         1 ROC      -0.0526
     42 C71        -2.0855   10.4792    7.2192 C.3         1 ROC      -0.0451
     43 C7A        -1.1250    9.2572    7.3360 C.3         1 ROC       0.0024
     44 C81        -1.7221    8.0649    8.1449 C.3         1 ROC      -0.0266
     45 N3          1.7501    8.0333   10.7814 N.am        1 ROC      -0.2771
     46 CD          2.0263    8.3888   12.1565 C.3         1 ROC       0.0448
     47 C11         2.2592    7.1113   13.0221 C.3         1 ROC      -0.0396
     48 C22         0.8844    9.2582   12.7765 C.3         1 ROC      -0.0396
     49 C32         3.3390    9.2301   12.1227 C.3         1 ROC      -0.0396
     50 H1         -6.0274   -1.2336    9.6451 H           1 ROC       0.0729
     51 H2         -7.4066   -2.5485   11.0875 H           1 ROC       0.0774
     52 H3         -7.6584   -3.9361   13.1970 H           1 ROC       0.0657
     53 H4         -6.6450   -4.9170   15.1577 H           1 ROC       0.0652
     54 H5         -4.2845   -4.5855   15.6149 H           1 ROC       0.0657
     55 H6         -2.9301   -3.2475   14.1164 H           1 ROC       0.0653
     56 H7         -4.6705   -0.1687    8.6437 H           1 ROC       0.1882
     57 H8         -1.9630    0.9216    8.4669 H           1 ROC       0.0826
     58 H9         -3.5479    0.4103    5.9360 H           1 ROC       0.0551
     59 H10        -3.0288   -1.0352    6.7654 H           1 ROC       0.0551
     60 H11         0.4051   -0.5500    6.1477 H           1 ROC       0.1814
     61 H12        -0.6298   -1.2249    7.2935 H           1 ROC       0.1814
     62 H13        -2.9892    4.3993    9.4387 H           1 ROC       0.0672
     63 H14        -4.5651    5.8626    9.2528 H           1 ROC       0.2101
     64 H15        -2.4947    4.9468    6.5311 H           1 ROC       0.0606
     65 H16        -2.0270    2.8424    6.8871 H           1 ROC       0.1857
     66 H17        -4.7616    5.9530    6.8822 H           1 ROC       0.0449
     67 H18        -5.3546    4.4200    7.4539 H           1 ROC       0.0449
     68 H19        -6.0680    2.8017    5.8184 H           1 ROC       0.0557
     69 H20        -3.7578    6.0913    4.5093 H           1 ROC       0.0557
     70 H21        -6.5454    2.2374    3.5277 H           1 ROC       0.0599
     71 H22        -4.2763    5.5272    2.2206 H           1 ROC       0.0599
     72 H23        -5.6515    3.5912    1.7188 H           1 ROC       0.0559
     73 H24        -0.5975    6.6644    7.2716 H           1 ROC       0.2057
     74 H25        -0.7326    4.7903    8.3346 H           1 ROC       0.0841
     75 H26        -1.1083    5.4985    9.8678 H           1 ROC       0.0841
     76 H27         1.2165    6.3932    8.6472 H           1 ROC       0.1100
     77 H28         1.3585    8.0495    6.9589 H           1 ROC       0.0348
     78 H29         2.1718    8.7153    8.3584 H           1 ROC       0.0348
     79 H30         0.7315   10.3178    7.0890 H           1 ROC       0.0309
     80 H31         1.2052   10.8766    9.4424 H           1 ROC       0.0268
     81 H32        -0.2248    9.9879    9.9786 H           1 ROC       0.0268
     82 H33        -0.2392   12.4522    8.2102 H           1 ROC       0.0265
     83 H34        -0.7750   12.3427    9.8930 H           1 ROC       0.0265
     84 H35        -2.6965   12.2811    8.2659 H           1 ROC       0.0265
     85 H36        -2.6203   10.8486    9.2940 H           1 ROC       0.0265
     86 H37        -1.7630   11.0900    6.3713 H           1 ROC       0.0270
     87 H38        -3.1013   10.1377    6.9961 H           1 ROC       0.0270
     88 H39        -0.9945    8.8716    6.3178 H           1 ROC       0.0355
     89 H40        -2.0351    8.3876    9.1362 H           1 ROC       0.0818
     90 H41        -2.6078    7.7710    7.5805 H           1 ROC       0.0818
     91 H42         2.4672    8.2226   10.1525 H           1 ROC       0.1859
     92 H43         2.5794    7.3816   14.0322 H           1 ROC       0.0254
     93 H44         3.0267    6.4745   12.5732 H           1 ROC       0.0254
     94 H45         1.3418    6.5274   13.1106 H           1 ROC       0.0254
     95 H46         1.1666    9.6199   13.7678 H           1 ROC       0.0254
     96 H47        -0.0374    8.6833   12.8870 H           1 ROC       0.0254
     97 H48         0.6755   10.1215   12.1420 H           1 ROC       0.0254
     98 H49         3.6104    9.5782   13.1233 H           1 ROC       0.0254
     99 H50         3.2179   10.1058   11.4762 H           1 ROC       0.0254
    100 H51         4.1678    8.6330   11.7317 H           1 ROC       0.0254
@<TRIPOS>BOND
     1     1     2   2
     2     1     4   1
     3    13     1  am
     4     4     3  ar
     5     3    12  ar
     6     4     5  ar
     7     5     6  ar
     8     6    11  ar
     9     7     8  ar
    10    11     7  ar
    11     9     8  ar
    12    10     9  ar
    13    12    10  ar
    14    12    11  ar
    15    14    13   1
    16    15    14   1
    17    14    17   1
    18    15    16   2
    19    24    15  am
    20    17    18   1
    21    18    19   2
    22    18    20  am
    23    21    22   1
    24    23    21   1
    25    21    33   1
    26    23    24   1
    27    23    25   1
    28    25    26   1
    29    26    27  ar
    30    26    28  ar
    31    27    29  ar
    32    28    30  ar
    33    29    31  ar
    34    30    31  ar
    35    33    32   1
    36    32    34   1
    37    32    44   1
    38    34    35   1
    39    34    37   1
    40    35    36   2
    41    35    45  am
    42    37    38   1
    43    38    39   1
    44    38    43   1
    45    39    40   1
    46    40    41   1
    47    41    42   1
    48    42    43   1
    49    43    44   1
    50    45    46   1
    51    46    47   1
    52    46    48   1
    53    46    49   1
    54     5    50   1
    55     6    51   1
    56     7    52   1
    57     8    53   1
    58     9    54   1
    59    10    55   1
    60    13    56   1
    61    14    57   1
    62    17    58   1
    63    17    59   1
    64    20    60   1
    65    20    61   1
    66    21    62   1
    67    22    63   1
    68    23    64   1
    69    24    65   1
    70    25    66   1
    71    25    67   1
    72    27    68   1
    73    28    69   1
    74    29    70   1
    75    30    71   1
    76    31    72   1
    77    32    73   1
    78    33    74   1
    79    33    75   1
    80    34    76   1
    81    37    77   1
    82    37    78   1
    83    38    79   1
    84    39    80   1
    85    39    81   1
    86    40    82   1
    87    40    83   1
    88    41    84   1
    89    41    85   1
    90    42    86   1
    91    42    87   1
    92    43    88   1
    93    44    89   1
    94    44    90   1
    95    45    91   1
    96    47    92   1
    97    47    93   1
    98    47    94   1
    99    48    95   1
   100    48    96   1
   101    48    97   1
   102    49    98   1
   103    49    99   1
   104    49   100   1
@<TRIPOS>SUBSTRUCTURE
     1  ROC      1

