@<TRIPOS>MOLECULE
3pww_ligand_034
   100   104
SMALL
GAST_HUCK
****
This file was generated by PARSER (from files_GN.cpp)

@<TRIPOS>ATOM
      1 C          -1.7507    7.0643    7.9542 C.2         1 ROC       0.2293
      2 O          -2.6310    6.5480    7.2718 O.2         1 ROC      -0.3762
      3 N1         -2.7931    9.1739    7.6927 N.ar        1 ROC      -0.2737
      4 C2         -1.7005    8.4509    8.0657 C.ar        1 ROC       0.1219
      5 C3         -0.5899    9.1612    8.5910 C.ar        1 ROC      -0.0136
      6 C4         -0.6482   10.5598    8.7210 C.ar        1 ROC      -0.0314
      7 C5         -1.9190   12.6640    8.4725 C.ar        1 ROC      -0.0444
      8 C6         -3.0990   13.3192    8.0740 C.ar        1 ROC      -0.0546
      9 C7         -4.1725   12.5812    7.5423 C.ar        1 ROC      -0.0545
     10 C8         -4.0727   11.1844    7.4069 C.ar        1 ROC      -0.0370
     11 C4A        -1.8077   11.2618    8.3399 C.ar        1 ROC       0.0097
     12 C8A        -2.8952   10.5227    7.8048 C.ar        1 ROC       0.0527
     13 N          -0.9312    6.2893    8.6561 N.am        1 ROC      -0.2600
     14 CA         -0.9660    4.8546    8.7709 C.3         1 ROC       0.1473
     15 C1         -2.2563    4.3275    9.2177 C.2         1 ROC       0.2045
     16 O1         -2.9876    5.0275    9.9109 O.2         1 ROC      -0.3943
     17 CB          0.2136    4.3953    9.6887 C.3         1 ROC       0.0773
     18 CG          0.4265    5.1336   10.9306 C.2         1 ROC       0.1780
     19 OD1        -0.3507    5.9899   11.3324 O.2         1 ROC      -0.3970
     20 ND2         1.5204    4.9355   11.6325 N.am        1 ROC      -0.3007
     21 C9         -5.0111    3.0123    8.1371 C.3         1 ROC       0.1194
     22 O2         -6.2979    2.5435    8.5472 O.3         1 ROC      -0.3840
     23 CA1        -3.8934    2.4512    9.0915 C.3         1 ROC       0.0823
     24 N2         -2.6319    3.1060    8.8499 N.am        1 ROC      -0.2772
     25 CB1        -4.2452    2.4693   10.6175 C.3         1 ROC       0.0066
     26 CG1        -4.9667    1.2678   11.1268 C.ar        1 ROC      -0.0408
     27 CD1        -6.0823    1.3906   11.9917 C.ar        1 ROC      -0.0603
     28 CD2        -4.4955   -0.0320   10.8221 C.ar        1 ROC      -0.0603
     29 CE1        -6.6981    0.2515   12.5442 C.ar        1 ROC      -0.0686
     30 CE2        -5.1190   -1.1731   11.3623 C.ar        1 ROC      -0.0686
     31 CZ         -6.2173   -1.0310   12.2275 C.ar        1 ROC      -0.0687
     32 N11        -5.5970    1.7216    5.8472 N.4         1 ROC       0.2562
     33 CM         -4.7587    2.7192    6.6123 C.3         1 ROC      -0.0008
     34 C21        -6.8140    2.2701    5.1468 C.3         1 ROC       0.0688
     35 CC         -7.7553    3.0270    5.9796 C.2         1 ROC       0.2251
     36 O3         -8.3355    2.4565    6.8912 O.2         1 ROC      -0.3909
     37 C31        -7.5183    1.1976    4.2443 C.3         1 ROC       0.0113
     38 C3A        -7.5988   -0.2572    4.8037 C.3         1 ROC      -0.0261
     39 C41        -8.8370   -0.5321    5.7165 C.3         1 ROC      -0.0494
     40 C51        -8.8725   -2.0016    6.2123 C.3         1 ROC      -0.0528
     41 C61        -7.5645   -2.3746    6.9547 C.3         1 ROC      -0.0526
     42 C71        -6.3149   -2.1140    6.0699 C.3         1 ROC      -0.0451
     43 C7A        -6.2511   -0.6686    5.4808 C.3         1 ROC       0.0024
     44 C81        -5.7933    0.3980    6.5161 C.3         1 ROC      -0.0266
     45 N3         -7.9733    4.3172    5.7167 N.am        1 ROC      -0.2771
     46 CD         -8.8578    5.2474    6.3792 C.3         1 ROC       0.0448
     47 C11        -8.6254    6.6327    5.6964 C.3         1 ROC      -0.0396
     48 C22        -8.5037    5.3699    7.8929 C.3         1 ROC      -0.0396
     49 C32       -10.3515    4.8333    6.1929 C.3         1 ROC      -0.0396
     50 H1          0.2648    8.6767    8.8714 H           1 ROC       0.0729
     51 H2          0.1618   11.0587    9.0992 H           1 ROC       0.0774
     52 H3         -1.1461   13.2126    8.8578 H           1 ROC       0.0657
     53 H4         -3.1760   14.3335    8.1746 H           1 ROC       0.0652
     54 H5         -5.0284   13.0621    7.2552 H           1 ROC       0.0657
     55 H6         -4.8580   10.6550    7.0209 H           1 ROC       0.0653
     56 H7         -0.2587    6.7390    9.1892 H           1 ROC       0.1882
     57 H8         -0.7696    4.4497    7.7730 H           1 ROC       0.0826
     58 H9          1.1353    4.4797    9.1019 H           1 ROC       0.0551
     59 H10         0.0901    3.3355    9.9358 H           1 ROC       0.0551
     60 H11         1.6876    5.4606   12.4320 H           1 ROC       0.1814
     61 H12         2.1703    4.2703   11.3567 H           1 ROC       0.1814
     62 H13        -5.0388    4.1022    8.2620 H           1 ROC       0.0672
     63 H14        -6.5774    3.1667    9.2636 H           1 ROC       0.2101
     64 H15        -3.7216    1.4093    8.8163 H           1 ROC       0.0606
     65 H16        -1.9862    2.6010    8.3292 H           1 ROC       0.1857
     66 H17        -4.8176    3.3757   10.8339 H           1 ROC       0.0449
     67 H18        -3.3222    2.5424   11.2016 H           1 ROC       0.0449
     68 H19        -6.4490    2.3132   12.2346 H           1 ROC       0.0557
     69 H20        -3.6773   -0.1534   10.2182 H           1 ROC       0.0557
     70 H21        -7.4886    0.3549   13.1836 H           1 ROC       0.0599
     71 H22        -4.7676   -2.1087   11.1360 H           1 ROC       0.0599
     72 H23        -6.6663   -1.8596   12.6284 H           1 ROC       0.0559
     73 H24        -4.9903    1.4815    5.0570 H           1 ROC       0.2057
     74 H25        -3.7246    2.3918    6.4881 H           1 ROC       0.0841
     75 H26        -4.8026    3.6771    6.0834 H           1 ROC       0.0841
     76 H27        -6.3988    2.9813    4.4218 H           1 ROC       0.1100
     77 H28        -6.9462    1.1339    3.3115 H           1 ROC       0.0348
     78 H29        -8.5196    1.5347    3.9577 H           1 ROC       0.0348
     79 H30        -7.7298   -0.9117    3.9360 H           1 ROC       0.0309
     80 H31        -9.7561   -0.3307    5.1551 H           1 ROC       0.0268
     81 H32        -8.8268    0.1259    6.5902 H           1 ROC       0.0268
     82 H33        -9.0139   -2.6742    5.3615 H           1 ROC       0.0265
     83 H34        -9.7193   -2.1332    6.8913 H           1 ROC       0.0265
     84 H35        -7.5952   -3.4338    7.2264 H           1 ROC       0.0265
     85 H36        -7.4873   -1.7971    7.8794 H           1 ROC       0.0265
     86 H37        -6.3273   -2.8273    5.2375 H           1 ROC       0.0270
     87 H38        -5.4115   -2.3212    6.6537 H           1 ROC       0.0270
     88 H39        -5.4832   -0.6868    4.7003 H           1 ROC       0.0355
     89 H40        -6.5229    0.4609    7.3237 H           1 ROC       0.0818
     90 H41        -4.8440    0.0635    6.9418 H           1 ROC       0.0818
     91 H42        -7.4666    4.6869    4.9739 H           1 ROC       0.1859
     92 H43        -9.2665    7.4003    6.1387 H           1 ROC       0.0254
     93 H44        -8.8455    6.5785    4.6271 H           1 ROC       0.0254
     94 H45        -7.5851    6.9486    5.8131 H           1 ROC       0.0254
     95 H46        -9.0883    6.1633    8.3640 H           1 ROC       0.0254
     96 H47        -7.4446    5.6028    8.0164 H           1 ROC       0.0254
     97 H48        -8.7129    4.4410    8.4237 H           1 ROC       0.0254
     98 H49       -11.0181    5.5941    6.6049 H           1 ROC       0.0254
     99 H50       -10.5661    3.8921    6.7009 H           1 ROC       0.0254
    100 H51       -10.5863    4.7096    5.1339 H           1 ROC       0.0254
@<TRIPOS>BOND
     1     1     2   2
     2     1     4   1
     3    13     1  am
     4     4     3  ar
     5     3    12  ar
     6     4     5  ar
     7     5     6  ar
     8     6    11  ar
     9     7     8  ar
    10    11     7  ar
    11     9     8  ar
    12    10     9  ar
    13    12    10  ar
    14    12    11  ar
    15    14    13   1
    16    15    14   1
    17    14    17   1
    18    15    16   2
    19    24    15  am
    20    17    18   1
    21    18    19   2
    22    18    20  am
    23    21    22   1
    24    23    21   1
    25    21    33   1
    26    23    24   1
    27    23    25   1
    28    25    26   1
    29    26    27  ar
    30    26    28  ar
    31    27    29  ar
    32    28    30  ar
    33    29    31  ar
    34    30    31  ar
    35    33    32   1
    36    32    34   1
    37    32    44   1
    38    34    35   1
    39    34    37   1
    40    35    36   2
    41    35    45  am
    42    37    38   1
    43    38    39   1
    44    38    43   1
    45    39    40   1
    46    40    41   1
    47    41    42   1
    48    42    43   1
    49    43    44   1
    50    45    46   1
    51    46    47   1
    52    46    48   1
    53    46    49   1
    54     5    50   1
    55     6    51   1
    56     7    52   1
    57     8    53   1
    58     9    54   1
    59    10    55   1
    60    13    56   1
    61    14    57   1
    62    17    58   1
    63    17    59   1
    64    20    60   1
    65    20    61   1
    66    21    62   1
    67    22    63   1
    68    23    64   1
    69    24    65   1
    70    25    66   1
    71    25    67   1
    72    27    68   1
    73    28    69   1
    74    29    70   1
    75    30    71   1
    76    31    72   1
    77    32    73   1
    78    33    74   1
    79    33    75   1
    80    34    76   1
    81    37    77   1
    82    37    78   1
    83    38    79   1
    84    39    80   1
    85    39    81   1
    86    40    82   1
    87    40    83   1
    88    41    84   1
    89    41    85   1
    90    42    86   1
    91    42    87   1
    92    43    88   1
    93    44    89   1
    94    44    90   1
    95    45    91   1
    96    47    92   1
    97    47    93   1
    98    47    94   1
    99    48    95   1
   100    48    96   1
   101    48    97   1
   102    49    98   1
   103    49    99   1
   104    49   100   1
@<TRIPOS>SUBSTRUCTURE
     1  ROC      1

