@<TRIPOS>MOLECULE
3pww_ligand_018
   100   104
SMALL
GAST_HUCK
****
This file was generated by PARSER (from files_GN.cpp)

@<TRIPOS>ATOM
      1 C           0.3977    7.8179    9.1997 C.2         1 ROC       0.2293
      2 O          -0.7146    8.1530    9.5672 O.2         1 ROC      -0.3762
      3 N1          1.0014   10.1217    9.1411 N.ar        1 ROC      -0.2737
      4 C2          1.3843    8.8095    9.1362 C.ar        1 ROC       0.1219
      5 C3          2.7756    8.5321    9.1139 C.ar        1 ROC      -0.0136
      6 C4          3.7019    9.5918    9.0842 C.ar        1 ROC      -0.0314
      7 C5          4.1528   12.0237    9.0161 C.ar        1 ROC      -0.0444
      8 C6          3.6558   13.3404    9.0090 C.ar        1 ROC      -0.0546
      9 C7          2.2681   13.5746    9.0393 C.ar        1 ROC      -0.0545
     10 C8          1.3710   12.4932    9.0890 C.ar        1 ROC      -0.0370
     11 C4A         3.2585   10.9313    9.0640 C.ar        1 ROC       0.0097
     12 C8A         1.8605   11.1724    9.1031 C.ar        1 ROC       0.0527
     13 N           0.6594    6.5416    8.9021 N.am        1 ROC      -0.2600
     14 CA         -0.1632    5.3638    9.0684 C.3         1 ROC       0.1473
     15 C1         -1.5564    5.5094    8.6323 C.2         1 ROC       0.2045
     16 O1         -2.2677    6.3529    9.1752 O.2         1 ROC      -0.3943
     17 CB         -0.0130    4.6964   10.4836 C.3         1 ROC       0.0773
     18 CG          0.6243    5.5004   11.5113 C.2         1 ROC       0.1780
     19 OD1         0.0562    6.4831   11.9677 O.2         1 ROC      -0.3970
     20 ND2         1.7951    5.1672   12.0107 N.am        1 ROC      -0.3007
     21 C9         -3.6629    3.2244    6.6532 C.3         1 ROC       0.1194
     22 O2         -2.6887    2.8151    5.6942 O.3         1 ROC      -0.3840
     23 CA1        -3.3699    4.6850    7.1336 C.3         1 ROC       0.0823
     24 N2         -2.0351    4.7128    7.6813 N.am        1 ROC      -0.2772
     25 CB1        -3.4743    5.7899    6.0237 C.3         1 ROC       0.0066
     26 CG1        -4.7122    6.6187    6.0964 C.ar        1 ROC      -0.0408
     27 CD1        -4.9677    7.3960    7.2528 C.ar        1 ROC      -0.0603
     28 CD2        -5.6254    6.6851    5.0190 C.ar        1 ROC      -0.0603
     29 CE1        -6.1215    8.1971    7.3386 C.ar        1 ROC      -0.0686
     30 CE2        -6.7817    7.4865    5.1073 C.ar        1 ROC      -0.0686
     31 CZ         -7.0306    8.2414    6.2679 C.ar        1 ROC      -0.0687
     32 N11        -5.4193    1.5351    5.7759 N.4         1 ROC       0.2562
     33 CM         -5.0799    2.9822    6.0533 C.3         1 ROC      -0.0008
     34 C21        -6.7224    1.3198    5.0336 C.3         1 ROC       0.0688
     35 CC         -7.9587    1.8332    5.6392 C.2         1 ROC       0.2251
     36 O3         -7.9753    2.1852    6.8109 O.2         1 ROC      -0.3909
     37 C31        -6.8454   -0.1886    4.6177 C.3         1 ROC       0.0113
     38 C3A        -6.6279   -1.2126    5.7733 C.3         1 ROC      -0.0261
     39 C41        -7.8675   -1.3873    6.7090 C.3         1 ROC      -0.0494
     40 C51        -7.5940   -2.3863    7.8623 C.3         1 ROC      -0.0528
     41 C61        -6.3406   -1.9759    8.6775 C.3         1 ROC      -0.0526
     42 C71        -5.0975   -1.8374    7.7631 C.3         1 ROC      -0.0451
     43 C7A        -5.3179   -0.8717    6.5547 C.3         1 ROC       0.0024
     44 C81        -5.2699    0.6313    6.9663 C.3         1 ROC      -0.0266
     45 N3         -9.0541    1.9346    4.8899 N.am        1 ROC      -0.2771
     46 CD        -10.3719    2.4121    5.2441 C.3         1 ROC       0.0448
     47 C11       -11.0035    1.5394    6.3741 C.3         1 ROC      -0.0396
     48 C22       -11.2522    2.2759    3.9637 C.3         1 ROC      -0.0396
     49 C32       -10.3337    3.9168    5.6598 C.3         1 ROC      -0.0396
     50 H1          3.1283    7.5707    9.1462 H           1 ROC       0.0729
     51 H2          4.7006    9.3787    9.0872 H           1 ROC       0.0774
     52 H3          5.1622   11.8720    8.9771 H           1 ROC       0.0657
     53 H4          4.3026   14.1297    8.9731 H           1 ROC       0.0652
     54 H5          1.9108   14.5327    9.0191 H           1 ROC       0.0657
     55 H6          0.3604   12.6653    9.1059 H           1 ROC       0.0653
     56 H7          1.5378    6.3612    8.5478 H           1 ROC       0.1882
     57 H8          0.3013    4.6375    8.3857 H           1 ROC       0.0826
     58 H9          0.5499    3.7577   10.3737 H           1 ROC       0.0551
     59 H10        -0.9946    4.3982   10.8751 H           1 ROC       0.0551
     60 H11         2.1967    5.6988   12.7163 H           1 ROC       0.1814
     61 H12         2.2491    4.3678   11.6976 H           1 ROC       0.1814
     62 H13        -3.5526    2.5851    7.5313 H           1 ROC       0.0672
     63 H14        -1.9821    2.3808    6.2174 H           1 ROC       0.2101
     64 H15        -4.0940    4.9014    7.9279 H           1 ROC       0.0606
     65 H16        -1.4077    4.0769    7.2915 H           1 ROC       0.1857
     66 H17        -3.3675    5.3260    5.0380 H           1 ROC       0.0449
     67 H18        -2.6363    6.4930    6.1094 H           1 ROC       0.0449
     68 H19        -4.3147    7.3889    8.0376 H           1 ROC       0.0557
     69 H20        -5.4602    6.1548    4.1613 H           1 ROC       0.0557
     70 H21        -6.2979    8.7504    8.1827 H           1 ROC       0.0599
     71 H22        -7.4415    7.5219    4.3225 H           1 ROC       0.0599
     72 H23        -7.8701    8.8184    6.3322 H           1 ROC       0.0559
     73 H24        -4.7101    1.2231    5.1042 H           1 ROC       0.2057
     74 H25        -5.1296    3.5352    5.1142 H           1 ROC       0.0841
     75 H26        -5.8178    3.4208    6.7292 H           1 ROC       0.0841
     76 H27        -6.6152    1.8735    4.0924 H           1 ROC       0.1100
     77 H28        -6.0769   -0.3800    3.8648 H           1 ROC       0.0348
     78 H29        -7.8042   -0.3852    4.1281 H           1 ROC       0.0348
     79 H30        -6.4699   -2.1898    5.2996 H           1 ROC       0.0309
     80 H31        -8.7157   -1.7523    6.1231 H           1 ROC       0.0268
     81 H32        -8.1556   -0.4338    7.1475 H           1 ROC       0.0268
     82 H33        -7.4487   -3.3911    7.4533 H           1 ROC       0.0265
     83 H34        -8.4585   -2.4197    8.5299 H           1 ROC       0.0265
     84 H35        -6.1364   -2.7293    9.4401 H           1 ROC       0.0265
     85 H36        -6.5308   -1.0305    9.1918 H           1 ROC       0.0265
     86 H37        -4.8455   -2.8308    7.3748 H           1 ROC       0.0270
     87 H38        -4.2471   -1.5020    8.3632 H           1 ROC       0.0270
     88 H39        -4.4749   -1.0312    5.8710 H           1 ROC       0.0355
     89 H40        -6.0324    0.8501    7.7111 H           1 ROC       0.0818
     90 H41        -4.3038    0.7876    7.4427 H           1 ROC       0.0818
     91 H42        -8.9490    1.6499    3.9662 H           1 ROC       0.1859
     92 H43       -12.0354    1.8437    6.5657 H           1 ROC       0.0254
     93 H44       -10.4477    1.6371    7.3072 H           1 ROC       0.0254
     94 H45       -11.0039    0.4854    6.0868 H           1 ROC       0.0254
     95 H46       -12.2701    2.6325    4.1463 H           1 ROC       0.0254
     96 H47       -11.3103    1.2315    3.6436 H           1 ROC       0.0254
     97 H48       -10.8307    2.8592    3.1402 H           1 ROC       0.0254
     98 H49       -11.3443    4.2983    5.8237 H           1 ROC       0.0254
     99 H50        -9.8637    4.5175    4.8773 H           1 ROC       0.0254
    100 H51        -9.7707    4.0588    6.5824 H           1 ROC       0.0254
@<TRIPOS>BOND
     1     1     2   2
     2     1     4   1
     3    13     1  am
     4     4     3  ar
     5     3    12  ar
     6     4     5  ar
     7     5     6  ar
     8     6    11  ar
     9     7     8  ar
    10    11     7  ar
    11     9     8  ar
    12    10     9  ar
    13    12    10  ar
    14    12    11  ar
    15    14    13   1
    16    15    14   1
    17    14    17   1
    18    15    16   2
    19    24    15  am
    20    17    18   1
    21    18    19   2
    22    18    20  am
    23    21    22   1
    24    23    21   1
    25    21    33   1
    26    23    24   1
    27    23    25   1
    28    25    26   1
    29    26    27  ar
    30    26    28  ar
    31    27    29  ar
    32    28    30  ar
    33    29    31  ar
    34    30    31  ar
    35    33    32   1
    36    32    34   1
    37    32    44   1
    38    34    35   1
    39    34    37   1
    40    35    36   2
    41    35    45  am
    42    37    38   1
    43    38    39   1
    44    38    43   1
    45    39    40   1
    46    40    41   1
    47    41    42   1
    48    42    43   1
    49    43    44   1
    50    45    46   1
    51    46    47   1
    52    46    48   1
    53    46    49   1
    54     5    50   1
    55     6    51   1
    56     7    52   1
    57     8    53   1
    58     9    54   1
    59    10    55   1
    60    13    56   1
    61    14    57   1
    62    17    58   1
    63    17    59   1
    64    20    60   1
    65    20    61   1
    66    21    62   1
    67    22    63   1
    68    23    64   1
    69    24    65   1
    70    25    66   1
    71    25    67   1
    72    27    68   1
    73    28    69   1
    74    29    70   1
    75    30    71   1
    76    31    72   1
    77    32    73   1
    78    33    74   1
    79    33    75   1
    80    34    76   1
    81    37    77   1
    82    37    78   1
    83    38    79   1
    84    39    80   1
    85    39    81   1
    86    40    82   1
    87    40    83   1
    88    41    84   1
    89    41    85   1
    90    42    86   1
    91    42    87   1
    92    43    88   1
    93    44    89   1
    94    44    90   1
    95    45    91   1
    96    47    92   1
    97    47    93   1
    98    47    94   1
    99    48    95   1
   100    48    96   1
   101    48    97   1
   102    49    98   1
   103    49    99   1
   104    49   100   1
@<TRIPOS>SUBSTRUCTURE
     1  ROC      1

