@<TRIPOS>MOLECULE
3pww_ligand_007
   100   104
SMALL
GAST_HUCK
****
This file was generated by PARSER (from files_GN.cpp)

@<TRIPOS>ATOM
      1 C          -2.7371   -1.0201   10.3965 C.2         1 ROC       0.2293
      2 O          -1.5753   -1.1333   10.7761 O.2         1 ROC      -0.3762
      3 N1         -3.3997   -2.3038   12.2737 N.ar        1 ROC      -0.2737
      4 C2         -3.7337   -1.6932   11.1022 C.ar        1 ROC       0.1219
      5 C3         -5.0780   -1.8188   10.6636 C.ar        1 ROC      -0.0136
      6 C4         -6.0112   -2.5313   11.4399 C.ar        1 ROC      -0.0314
      7 C5         -6.5212   -3.8431   13.4749 C.ar        1 ROC      -0.0444
      8 C6         -6.0732   -4.4244   14.6765 C.ar        1 ROC      -0.0546
      9 C7         -4.7311   -4.2792   15.0778 C.ar        1 ROC      -0.0545
     10 C8         -3.8237   -3.5748   14.2655 C.ar        1 ROC      -0.0370
     11 C4A        -5.6187   -3.1311   12.6533 C.ar        1 ROC       0.0097
     12 C8A        -4.2644   -2.9968   13.0556 C.ar        1 ROC       0.0527
     13 N          -3.0023   -0.2641    9.3295 N.am        1 ROC      -0.2600
     14 CA         -2.0613    0.3953    8.4586 C.3         1 ROC       0.1473
     15 C1         -2.2924    1.8404    8.5328 C.2         1 ROC       0.2045
     16 O1         -3.3956    2.2731    8.2144 O.2         1 ROC      -0.3943
     17 CB         -2.2370   -0.2032    7.0250 C.3         1 ROC       0.0773
     18 CG         -1.0620   -0.0906    6.1843 C.2         1 ROC       0.1780
     19 OD1        -1.0551    0.6433    5.2041 O.2         1 ROC      -0.3970
     20 ND2         0.0140   -0.8083    6.4352 N.am        1 ROC      -0.3007
     21 C9         -0.1959    4.8429    9.0611 C.3         1 ROC       0.1194
     22 O2          0.9307    4.1900    9.6485 O.3         1 ROC      -0.3840
     23 CA1        -1.5191    4.0574    9.3873 C.3         1 ROC       0.0823
     24 N2         -1.3722    2.6526    9.0530 N.am        1 ROC      -0.2772
     25 CB1        -1.9309    4.1907   10.8899 C.3         1 ROC       0.0066
     26 CG1        -2.9167    3.1836   11.3587 C.ar        1 ROC      -0.0408
     27 CD1        -2.4744    1.9936   11.9874 C.ar        1 ROC      -0.0603
     28 CD2        -4.3049    3.3737   11.1526 C.ar        1 ROC      -0.0603
     29 CE1        -3.4030    1.0123   12.3666 C.ar        1 ROC      -0.0686
     30 CE2        -5.2301    2.4095   11.5822 C.ar        1 ROC      -0.0686
     31 CZ         -4.7809    1.2185   12.1832 C.ar        1 ROC      -0.0687
     32 N11         1.0299    7.1669    9.2344 N.4         1 ROC       0.2562
     33 CM         -0.2176    6.3502    9.4972 C.3         1 ROC      -0.0008
     34 C21         2.1187    7.1003   10.2971 C.3         1 ROC       0.0688
     35 CC          1.8138    7.5613   11.6606 C.2         1 ROC       0.2251
     36 O3          0.7065    8.0046   11.9321 O.2         1 ROC      -0.3909
     37 C31         3.4101    7.7709    9.7140 C.3         1 ROC       0.0113
     38 C3A         3.2095    9.2271    9.2019 C.3         1 ROC      -0.0261
     39 C41         3.1249   10.2905   10.3399 C.3         1 ROC      -0.0494
     40 C51         2.9349   11.7218    9.7785 C.3         1 ROC      -0.0528
     41 C61         1.6723   11.7968    8.8815 C.3         1 ROC      -0.0526
     42 C71         1.7253   10.7520    7.7350 C.3         1 ROC      -0.0451
     43 C7A         1.9941    9.2899    8.2224 C.3         1 ROC       0.0024
     44 C81         0.7347    8.5828    8.8094 C.3         1 ROC      -0.0266
     45 N3          2.7620    7.5201   12.5985 N.am        1 ROC      -0.2771
     46 CD          2.6986    7.9063   13.9924 C.3         1 ROC       0.0448
     47 C11         4.1557    7.7837   14.5416 C.3         1 ROC      -0.0396
     48 C22         1.7737    6.9289   14.7830 C.3         1 ROC      -0.0396
     49 C32         2.2237    9.3839   14.1874 C.3         1 ROC      -0.0396
     50 H1         -5.3924   -1.4037    9.7812 H           1 ROC       0.0729
     51 H2         -6.9776   -2.6101   11.1135 H           1 ROC       0.0774
     52 H3         -7.5000   -3.9626   13.1964 H           1 ROC       0.0657
     53 H4         -6.7253   -4.9535   15.2620 H           1 ROC       0.0652
     54 H5         -4.4001   -4.7178   15.9371 H           1 ROC       0.0657
     55 H6         -2.8469   -3.4805   14.5597 H           1 ROC       0.0653
     56 H7         -3.9350   -0.1723    9.0820 H           1 ROC       0.1882
     57 H8         -1.0389    0.1818    8.7830 H           1 ROC       0.0826
     58 H9         -3.0983    0.2630    6.5278 H           1 ROC       0.0551
     59 H10        -2.4732   -1.2705    7.1009 H           1 ROC       0.0551
     60 H11         0.7923   -0.7275    5.8607 H           1 ROC       0.1814
     61 H12         0.0260   -1.4266    7.1852 H           1 ROC       0.1814
     62 H13        -0.0544    4.8185    7.9766 H           1 ROC       0.0672
     63 H14         1.0608    3.3750    9.1178 H           1 ROC       0.2101
     64 H15        -2.3177    4.4961    8.7851 H           1 ROC       0.0606
     65 H16        -0.5439    2.2311    9.3420 H           1 ROC       0.1857
     66 H17        -2.3814    5.1710   11.0623 H           1 ROC       0.0449
     67 H18        -1.0307    4.1401   11.5094 H           1 ROC       0.0449
     68 H19        -1.4806    1.8225   12.1440 H           1 ROC       0.0557
     69 H20        -4.6460    4.2237   10.6952 H           1 ROC       0.0557
     70 H21        -3.0687    0.1334   12.7678 H           1 ROC       0.0599
     71 H22        -6.2302    2.5522   11.4367 H           1 ROC       0.0599
     72 H23        -5.4526    0.5059   12.4849 H           1 ROC       0.0559
     73 H24         1.4530    6.7388    8.4062 H           1 ROC       0.2057
     74 H25        -0.4462    6.4037   10.5604 H           1 ROC       0.0841
     75 H26        -1.0781    6.7917    8.9801 H           1 ROC       0.0841
     76 H27         2.3788    6.0449   10.4152 H           1 ROC       0.1100
     77 H28         3.7489    7.1641    8.8664 H           1 ROC       0.0348
     78 H29         4.2306    7.7547   10.4367 H           1 ROC       0.0348
     79 H30         4.1060    9.4776    8.6282 H           1 ROC       0.0309
     80 H31         4.0397   10.2633   10.9395 H           1 ROC       0.0268
     81 H32         2.2827   10.0851   11.0058 H           1 ROC       0.0268
     82 H33         3.8186   12.0087    9.1978 H           1 ROC       0.0265
     83 H34         2.8321   12.4262   10.6095 H           1 ROC       0.0265
     84 H35         1.6003   12.8006    8.4519 H           1 ROC       0.0265
     85 H36         0.7795   11.6305    9.4937 H           1 ROC       0.0265
     86 H37         2.5232   11.0425    7.0485 H           1 ROC       0.0270
     87 H38         0.7858   10.7931    7.1814 H           1 ROC       0.0270
     88 H39         2.2711    8.7198    7.3257 H           1 ROC       0.0355
     89 H40         0.3263    9.1606    9.6415 H           1 ROC       0.0818
     90 H41        -0.0197    8.5735    8.0176 H           1 ROC       0.0818
     91 H42         3.6264    7.1863   12.2992 H           1 ROC       0.1859
     92 H43         4.1950    8.0334   15.6052 H           1 ROC       0.0254
     93 H44         4.8235    8.4627   14.0055 H           1 ROC       0.0254
     94 H45         4.5316    6.7655   14.4154 H           1 ROC       0.0254
     95 H46         1.7884    7.1611   15.8513 H           1 ROC       0.0254
     96 H47         2.1119    5.8982   14.6494 H           1 ROC       0.0254
     97 H48         0.7414    7.0031   14.4336 H           1 ROC       0.0254
     98 H49         2.3188    9.6837   15.2349 H           1 ROC       0.0254
     99 H50         1.1758    9.5051   13.9048 H           1 ROC       0.0254
    100 H51         2.8276   10.0617   13.5783 H           1 ROC       0.0254
@<TRIPOS>BOND
     1     1     2   2
     2     1     4   1
     3    13     1  am
     4     4     3  ar
     5     3    12  ar
     6     4     5  ar
     7     5     6  ar
     8     6    11  ar
     9     7     8  ar
    10    11     7  ar
    11     9     8  ar
    12    10     9  ar
    13    12    10  ar
    14    12    11  ar
    15    14    13   1
    16    15    14   1
    17    14    17   1
    18    15    16   2
    19    24    15  am
    20    17    18   1
    21    18    19   2
    22    18    20  am
    23    21    22   1
    24    23    21   1
    25    21    33   1
    26    23    24   1
    27    23    25   1
    28    25    26   1
    29    26    27  ar
    30    26    28  ar
    31    27    29  ar
    32    28    30  ar
    33    29    31  ar
    34    30    31  ar
    35    33    32   1
    36    32    34   1
    37    32    44   1
    38    34    35   1
    39    34    37   1
    40    35    36   2
    41    35    45  am
    42    37    38   1
    43    38    39   1
    44    38    43   1
    45    39    40   1
    46    40    41   1
    47    41    42   1
    48    42    43   1
    49    43    44   1
    50    45    46   1
    51    46    47   1
    52    46    48   1
    53    46    49   1
    54     5    50   1
    55     6    51   1
    56     7    52   1
    57     8    53   1
    58     9    54   1
    59    10    55   1
    60    13    56   1
    61    14    57   1
    62    17    58   1
    63    17    59   1
    64    20    60   1
    65    20    61   1
    66    21    62   1
    67    22    63   1
    68    23    64   1
    69    24    65   1
    70    25    66   1
    71    25    67   1
    72    27    68   1
    73    28    69   1
    74    29    70   1
    75    30    71   1
    76    31    72   1
    77    32    73   1
    78    33    74   1
    79    33    75   1
    80    34    76   1
    81    37    77   1
    82    37    78   1
    83    38    79   1
    84    39    80   1
    85    39    81   1
    86    40    82   1
    87    40    83   1
    88    41    84   1
    89    41    85   1
    90    42    86   1
    91    42    87   1
    92    43    88   1
    93    44    89   1
    94    44    90   1
    95    45    91   1
    96    47    92   1
    97    47    93   1
    98    47    94   1
    99    48    95   1
   100    48    96   1
   101    48    97   1
   102    49    98   1
   103    49    99   1
   104    49   100   1
@<TRIPOS>SUBSTRUCTURE
     1  ROC      1

