@<TRIPOS>MOLECULE
3pxf_ligand_051
    33    35
SMALL
GAST_HUCK
****
This file was generated by PARSER (from files_GN.cpp)

@<TRIPOS>ATOM
      1 C1        120.1902  131.6366   63.2414 C.ar        1 MOL       0.0730
      2 C2        121.0144  130.5033   63.0227 C.ar        1 MOL      -0.0412
      3 C3        120.4705  129.2366   62.7987 C.ar        1 MOL      -0.0768
      4 C4        119.0838  129.0771   62.7597 C.ar        1 MOL      -0.0703
      5 C5        118.2315  130.1855   62.9546 C.ar        1 MOL      -0.0263
      6 C6        116.8407  129.9576   62.8802 C.ar        1 MOL      -0.0593
      7 C7        115.9423  131.0113   63.0497 C.ar        1 MOL      -0.0629
      8 C8        116.4253  132.2852   63.3630 C.ar        1 MOL      -0.0420
      9 N         120.7978  132.8497   63.3439 N.pl3       1 MOL      -0.2710
     10 S         118.1657  134.1011   64.2412 S.o2        1 MOL      -0.1624
     11 C9        117.8089  132.5345   63.5273 C.ar        1 MOL       0.0589
     12 C10       118.7597  131.4936   63.2321 C.ar        1 MOL       0.0329
     13 C11       121.9003  133.2326   64.0635 C.ar        1 MOL       0.0604
     14 C12       122.4791  132.4255   65.0745 C.ar        1 MOL      -0.0391
     15 C13       123.4993  132.9260   65.9029 C.ar        1 MOL      -0.0719
     16 C14       123.9543  134.2450   65.7372 C.ar        1 MOL      -0.0738
     17 C15       123.3869  135.0617   64.7425 C.ar        1 MOL      -0.0719
     18 C16       122.3572  134.5617   63.9225 C.ar        1 MOL      -0.0391
     19 O1        119.4109  133.9550   65.3762 O.co2       1 MOL      -0.4795
     20 O2        116.8246  134.7607   65.0336 O.co2       1 MOL      -0.4795
     21 O3        118.6210  135.1808   63.0242 O.co2       1 MOL      -0.4795
     22 H1        122.0308  130.5963   62.9630 H           1 MOL       0.0480
     23 H2        121.0870  128.4383   62.6344 H           1 MOL       0.0576
     24 H3        118.7037  128.1433   62.5808 H           1 MOL       0.0477
     25 H4        116.4648  129.0240   62.6955 H           1 MOL       0.0595
     26 H5        114.9355  130.8429   62.9833 H           1 MOL       0.0613
     27 H6        115.7321  133.0222   63.5063 H           1 MOL       0.0604
     28 H7        120.3328  133.5798   62.9203 H           1 MOL       0.2117
     29 H8        122.1284  131.4818   65.2519 H           1 MOL       0.0532
     30 H9        123.8930  132.3372   66.6421 H           1 MOL       0.0586
     31 H10       124.6841  134.6146   66.3507 H           1 MOL       0.0516
     32 H11       123.7084  136.0250   64.6302 H           1 MOL       0.0586
     33 H12       121.9290  135.1828   63.2323 H           1 MOL       0.0532
@<TRIPOS>BOND
     1     1     2  ar
     2     1     9   1
     3     1    12  ar
     4     2     3  ar
     5     3     4  ar
     6     4     5  ar
     7     5     6  ar
     8     5    12  ar
     9     6     7  ar
    10     7     8  ar
    11     8    11  ar
    12     9    13   1
    13    11    10   1
    14    10    19  ar
    15    10    20  ar
    16    10    21  ar
    17    11    12  ar
    18    13    14  ar
    19    13    18  ar
    20    14    15  ar
    21    15    16  ar
    22    16    17  ar
    23    17    18  ar
    24     2    22   1
    25     3    23   1
    26     4    24   1
    27     6    25   1
    28     7    26   1
    29     8    27   1
    30     9    28   1
    31    14    29   1
    32    15    30   1
    33    16    31   1
    34    17    32   1
    35    18    33   1
@<TRIPOS>SUBSTRUCTURE
     1  MOL      1

