@<TRIPOS>MOLECULE
3pxf_ligand_077
    33    35
SMALL
GAST_HUCK
****
This file was generated by PARSER (from files_GN.cpp)

@<TRIPOS>ATOM
      1 C1        117.6793  132.4515   61.4510 C.ar        1 MOL       0.0730
      2 C2        118.5219  133.5307   61.0995 C.ar        1 MOL      -0.0412
      3 C3        117.9986  134.6534   60.4368 C.ar        1 MOL      -0.0768
      4 C4        116.6452  134.6847   60.0770 C.ar        1 MOL      -0.0703
      5 C5        115.7774  133.6433   60.4632 C.ar        1 MOL      -0.0263
      6 C6        114.4187  133.6929   60.0839 C.ar        1 MOL      -0.0593
      7 C7        113.5160  132.7298   60.5573 C.ar        1 MOL      -0.0629
      8 C8        113.9478  131.7735   61.4811 C.ar        1 MOL      -0.0420
      9 N         118.2207  131.2500   61.7955 N.pl3       1 MOL      -0.2710
     10 S         115.6307  130.7337   63.2908 S.o2        1 MOL      -0.1624
     11 C9        115.3006  131.6985   61.8641 C.ar        1 MOL       0.0589
     12 C10       116.2684  132.5598   61.2573 C.ar        1 MOL       0.0329
     13 C11       119.3023  130.9316   62.5528 C.ar        1 MOL       0.0604
     14 C12       120.0489  129.7857   62.2167 C.ar        1 MOL      -0.0391
     15 C13       121.0843  129.3323   63.0518 C.ar        1 MOL      -0.0719
     16 C14       121.3669  130.0062   64.2553 C.ar        1 MOL      -0.0738
     17 C15       120.6064  131.1306   64.6156 C.ar        1 MOL      -0.0719
     18 C16       119.5826  131.5970   63.7700 C.ar        1 MOL      -0.0391
     19 O1        116.7038  131.5630   64.3065 O.co2       1 MOL      -0.4795
     20 O2        116.3243  129.2630   62.8332 O.co2       1 MOL      -0.4795
     21 O3        114.2194  130.4245   64.1569 O.co2       1 MOL      -0.4795
     22 H1        119.5303  133.4821   61.2400 H           1 MOL       0.0480
     23 H2        118.6174  135.4172   60.1568 H           1 MOL       0.0576
     24 H3        116.3004  135.4822   59.5383 H           1 MOL       0.0477
     25 H4        114.0658  134.4317   59.4703 H           1 MOL       0.0595
     26 H5        112.5289  132.7766   60.2936 H           1 MOL       0.0613
     27 H6        113.2448  131.1535   61.8949 H           1 MOL       0.0604
     28 H7        117.7383  130.4761   61.4451 H           1 MOL       0.2117
     29 H8        119.8363  129.2663   61.3595 H           1 MOL       0.0532
     30 H9        121.6247  128.5002   62.7947 H           1 MOL       0.0586
     31 H10       122.1073  129.6697   64.8689 H           1 MOL       0.0516
     32 H11       120.7856  131.6028   65.5078 H           1 MOL       0.0586
     33 H12       119.0085  132.3871   64.0726 H           1 MOL       0.0532
@<TRIPOS>BOND
     1     1     2  ar
     2     1     9   1
     3     1    12  ar
     4     2     3  ar
     5     3     4  ar
     6     4     5  ar
     7     5     6  ar
     8     5    12  ar
     9     6     7  ar
    10     7     8  ar
    11     8    11  ar
    12     9    13   1
    13    11    10   1
    14    10    19  ar
    15    10    20  ar
    16    10    21  ar
    17    11    12  ar
    18    13    14  ar
    19    13    18  ar
    20    14    15  ar
    21    15    16  ar
    22    16    17  ar
    23    17    18  ar
    24     2    22   1
    25     3    23   1
    26     4    24   1
    27     6    25   1
    28     7    26   1
    29     8    27   1
    30     9    28   1
    31    14    29   1
    32    15    30   1
    33    16    31   1
    34    17    32   1
    35    18    33   1
@<TRIPOS>SUBSTRUCTURE
     1  MOL      1

