@<TRIPOS>MOLECULE
3pxf_ligand_035
    33    35
SMALL
GAST_HUCK
****
This file was generated by PARSER (from files_GN.cpp)

@<TRIPOS>ATOM
      1 C1        125.5846  132.5318   64.6332 C.ar        1 MOL       0.0730
      2 C2        125.1917  133.8084   64.1760 C.ar        1 MOL      -0.0412
      3 C3        123.9560  134.0001   63.5533 C.ar        1 MOL      -0.0768
      4 C4        123.0995  132.9118   63.3729 C.ar        1 MOL      -0.0703
      5 C5        123.5015  131.6128   63.7548 C.ar        1 MOL      -0.0263
      6 C6        122.6117  130.5493   63.4968 C.ar        1 MOL      -0.0593
      7 C7        122.9755  129.2365   63.8140 C.ar        1 MOL      -0.0629
      8 C8        124.2409  128.9718   64.3501 C.ar        1 MOL      -0.0420
      9 N         126.7060  132.5587   65.3835 N.pl3       1 MOL      -0.2710
     10 S         126.7918  129.4627   64.9905 S.o2        1 MOL      -0.1624
     11 C9        125.1670  130.0116   64.6002 C.ar        1 MOL       0.0589
     12 C10       124.7815  131.3771   64.3641 C.ar        1 MOL       0.0329
     13 C11       126.6624  132.6796   66.7471 C.ar        1 MOL       0.0604
     14 C12       127.6501  133.4911   67.3445 C.ar        1 MOL      -0.0391
     15 C13       127.7013  133.6727   68.7387 C.ar        1 MOL      -0.0719
     16 C14       126.7786  133.0053   69.5631 C.ar        1 MOL      -0.0738
     17 C15       125.7770  132.2031   68.9884 C.ar        1 MOL      -0.0719
     18 C16       125.6983  132.0681   67.5895 C.ar        1 MOL      -0.0391
     19 O1        127.9359  130.2817   64.0505 O.co2       1 MOL      -0.4795
     20 O2        126.9525  127.8070   64.6859 O.co2       1 MOL      -0.4795
     21 O3        127.1591  129.7007   66.6252 O.co2       1 MOL      -0.4795
     22 H1        125.7752  134.6348   64.3551 H           1 MOL       0.0480
     23 H2        123.6635  134.9404   63.2703 H           1 MOL       0.0576
     24 H3        122.1850  133.0752   62.9449 H           1 MOL       0.0477
     25 H4        121.6993  130.7133   63.0759 H           1 MOL       0.0595
     26 H5        122.3292  128.4649   63.6141 H           1 MOL       0.0613
     27 H6        124.4770  127.9936   64.5160 H           1 MOL       0.0604
     28 H7        127.4109  133.1222   64.9968 H           1 MOL       0.2117
     29 H8        128.3367  133.9815   66.7632 H           1 MOL       0.0532
     30 H9        128.4165  134.2721   69.1484 H           1 MOL       0.0586
     31 H10       126.8310  133.1124   70.5747 H           1 MOL       0.0516
     32 H11       125.1064  131.7175   69.5885 H           1 MOL       0.0586
     33 H12       124.9521  131.4886   67.1961 H           1 MOL       0.0532
@<TRIPOS>BOND
     1     1     2  ar
     2     1     9   1
     3     1    12  ar
     4     2     3  ar
     5     3     4  ar
     6     4     5  ar
     7     5     6  ar
     8     5    12  ar
     9     6     7  ar
    10     7     8  ar
    11     8    11  ar
    12     9    13   1
    13    11    10   1
    14    10    19  ar
    15    10    20  ar
    16    10    21  ar
    17    11    12  ar
    18    13    14  ar
    19    13    18  ar
    20    14    15  ar
    21    15    16  ar
    22    16    17  ar
    23    17    18  ar
    24     2    22   1
    25     3    23   1
    26     4    24   1
    27     6    25   1
    28     7    26   1
    29     8    27   1
    30     9    28   1
    31    14    29   1
    32    15    30   1
    33    16    31   1
    34    17    32   1
    35    18    33   1
@<TRIPOS>SUBSTRUCTURE
     1  MOL      1

