@<TRIPOS>MOLECULE
3pxf_ligand_060
    33    35
SMALL
GAST_HUCK
****
This file was generated by PARSER (from files_GN.cpp)

@<TRIPOS>ATOM
      1 C1        115.6614  142.1754   68.7310 C.ar        1 MOL       0.0730
      2 C2        115.2251  140.8256   68.6919 C.ar        1 MOL      -0.0412
      3 C3        115.9126  139.8135   69.3671 C.ar        1 MOL      -0.0768
      4 C4        117.0342  140.1381   70.1323 C.ar        1 MOL      -0.0703
      5 C5        117.4967  141.4700   70.1991 C.ar        1 MOL      -0.0263
      6 C6        118.6096  141.7376   71.0255 C.ar        1 MOL      -0.0593
      7 C7        119.1321  143.0297   71.1112 C.ar        1 MOL      -0.0629
      8 C8        118.5894  144.0495   70.3215 C.ar        1 MOL      -0.0420
      9 N         114.8508  143.1385   68.2109 N.pl3       1 MOL      -0.2710
     10 S         117.1463  145.1435   68.3626 S.o2        1 MOL      -0.1624
     11 C9        117.4969  143.8089   69.4549 C.ar        1 MOL       0.0589
     12 C10       116.8612  142.5164   69.4459 C.ar        1 MOL       0.0329
     13 C11       113.8147  143.0539   67.3235 C.ar        1 MOL       0.0604
     14 C12       112.6838  143.8725   67.5358 C.ar        1 MOL      -0.0391
     15 C13       111.6132  143.8673   66.6214 C.ar        1 MOL      -0.0719
     16 C14       111.6767  143.0647   65.4681 C.ar        1 MOL      -0.0738
     17 C15       112.8123  142.2693   65.2292 C.ar        1 MOL      -0.0719
     18 C16       113.8782  142.2699   66.1467 C.ar        1 MOL      -0.0391
     19 O1        116.8208  144.5638   66.8074 O.co2       1 MOL      -0.4795
     20 O2        118.4438  146.2226   68.2495 O.co2       1 MOL      -0.4795
     21 O3        115.8087  146.0004   68.9453 O.co2       1 MOL      -0.4795
     22 H1        114.3576  140.5647   68.2219 H           1 MOL       0.0480
     23 H2        115.5722  138.8488   69.3342 H           1 MOL       0.0576
     24 H3        117.5112  139.3886   70.6388 H           1 MOL       0.0477
     25 H4        119.0485  140.9955   71.5791 H           1 MOL       0.0595
     26 H5        119.9332  143.2214   71.7185 H           1 MOL       0.0613
     27 H6        119.0303  144.9709   70.3792 H           1 MOL       0.0604
     28 H7        114.9997  144.0261   68.5575 H           1 MOL       0.2117
     29 H8        112.6291  144.4688   68.3646 H           1 MOL       0.0532
     30 H9        110.7913  144.4503   66.7930 H           1 MOL       0.0586
     31 H10       110.9010  143.0628   64.8014 H           1 MOL       0.0516
     32 H11       112.8669  141.6995   64.3815 H           1 MOL       0.0586
     33 H12       114.7098  141.7110   65.9433 H           1 MOL       0.0532
@<TRIPOS>BOND
     1     1     2  ar
     2     1     9   1
     3     1    12  ar
     4     2     3  ar
     5     3     4  ar
     6     4     5  ar
     7     5     6  ar
     8     5    12  ar
     9     6     7  ar
    10     7     8  ar
    11     8    11  ar
    12     9    13   1
    13    11    10   1
    14    10    19  ar
    15    10    20  ar
    16    10    21  ar
    17    11    12  ar
    18    13    14  ar
    19    13    18  ar
    20    14    15  ar
    21    15    16  ar
    22    16    17  ar
    23    17    18  ar
    24     2    22   1
    25     3    23   1
    26     4    24   1
    27     6    25   1
    28     7    26   1
    29     8    27   1
    30     9    28   1
    31    14    29   1
    32    15    30   1
    33    16    31   1
    34    17    32   1
    35    18    33   1
@<TRIPOS>SUBSTRUCTURE
     1  MOL      1

