@<TRIPOS>MOLECULE
3pxf_ligand_059
    33    35
SMALL
GAST_HUCK
****
This file was generated by PARSER (from files_GN.cpp)

@<TRIPOS>ATOM
      1 C1        123.7054  137.1383   63.9760 C.ar        1 MOL       0.0730
      2 C2        124.2459  138.0060   63.0060 C.ar        1 MOL      -0.0412
      3 C3        124.6515  139.3018   63.3415 C.ar        1 MOL      -0.0768
      4 C4        124.4999  139.7645   64.6536 C.ar        1 MOL      -0.0703
      5 C5        123.9028  138.9377   65.6315 C.ar        1 MOL      -0.0263
      6 C6        123.7343  139.4722   66.9304 C.ar        1 MOL      -0.0593
      7 C7        123.1223  138.7040   67.9250 C.ar        1 MOL      -0.0629
      8 C8        122.6355  137.4275   67.6225 C.ar        1 MOL      -0.0420
      9 N         123.5399  135.8709   63.5339 N.pl3       1 MOL      -0.2710
     10 S         121.8751  135.3651   66.1217 S.o2        1 MOL      -0.1624
     11 C9        122.7477  136.8764   66.3256 C.ar        1 MOL       0.0589
     12 C10       123.4595  137.6037   65.3088 C.ar        1 MOL       0.0329
     13 C11       124.3115  134.7991   63.8716 C.ar        1 MOL       0.0604
     14 C12       123.8187  133.5092   63.5706 C.ar        1 MOL      -0.0391
     15 C13       124.5731  132.3560   63.8743 C.ar        1 MOL      -0.0719
     16 C14       125.8454  132.4778   64.4631 C.ar        1 MOL      -0.0738
     17 C15       126.3635  133.7546   64.7422 C.ar        1 MOL      -0.0719
     18 C16       125.5963  134.9020   64.4559 C.ar        1 MOL      -0.0391
     19 O1        120.6815  135.1776   67.3039 O.co2       1 MOL      -0.4795
     20 O2        122.9574  134.0786   66.3029 O.co2       1 MOL      -0.4795
     21 O3        121.0916  135.2760   64.6239 O.co2       1 MOL      -0.4795
     22 H1        124.4203  137.6815   62.0492 H           1 MOL       0.0480
     23 H2        125.0857  139.9051   62.6344 H           1 MOL       0.0576
     24 H3        124.8139  140.7101   64.8817 H           1 MOL       0.0477
     25 H4        124.0541  140.4123   67.1645 H           1 MOL       0.0595
     26 H5        123.0016  139.0921   68.8663 H           1 MOL       0.0613
     27 H6        122.1661  136.9216   68.3717 H           1 MOL       0.0604
     28 H7        123.1843  135.8114   62.6123 H           1 MOL       0.2117
     29 H8        122.8967  133.3935   63.1477 H           1 MOL       0.0532
     30 H9        124.1977  131.4254   63.6672 H           1 MOL       0.0586
     31 H10       126.3933  131.6449   64.6805 H           1 MOL       0.0516
     32 H11       127.2967  133.8475   65.1494 H           1 MOL       0.0586
     33 H12       126.0086  135.8209   64.6583 H           1 MOL       0.0532
@<TRIPOS>BOND
     1     1     2  ar
     2     1     9   1
     3     1    12  ar
     4     2     3  ar
     5     3     4  ar
     6     4     5  ar
     7     5     6  ar
     8     5    12  ar
     9     6     7  ar
    10     7     8  ar
    11     8    11  ar
    12     9    13   1
    13    11    10   1
    14    10    19  ar
    15    10    20  ar
    16    10    21  ar
    17    11    12  ar
    18    13    14  ar
    19    13    18  ar
    20    14    15  ar
    21    15    16  ar
    22    16    17  ar
    23    17    18  ar
    24     2    22   1
    25     3    23   1
    26     4    24   1
    27     6    25   1
    28     7    26   1
    29     8    27   1
    30     9    28   1
    31    14    29   1
    32    15    30   1
    33    16    31   1
    34    17    32   1
    35    18    33   1
@<TRIPOS>SUBSTRUCTURE
     1  MOL      1

