@<TRIPOS>MOLECULE
3pxf_ligand_038
    33    35
SMALL
GAST_HUCK
****
This file was generated by PARSER (from files_GN.cpp)

@<TRIPOS>ATOM
      1 C1        117.5635  131.3272   62.8741 C.ar        1 MOL       0.0730
      2 C2        117.4765  129.9717   62.4498 C.ar        1 MOL      -0.0412
      3 C3        118.5308  129.0747   62.6204 C.ar        1 MOL      -0.0768
      4 C4        119.7082  129.5094   63.2443 C.ar        1 MOL      -0.0703
      5 C5        119.8463  130.8615   63.6431 C.ar        1 MOL      -0.0263
      6 C6        121.0727  131.2361   64.2384 C.ar        1 MOL      -0.0593
      7 C7        121.2948  132.5687   64.6045 C.ar        1 MOL      -0.0629
      8 C8        120.3005  133.5253   64.3844 C.ar        1 MOL      -0.0420
      9 N         116.4263  132.0745   62.8477 N.pl3       1 MOL      -0.2710
     10 S         118.0687  134.5872   63.3639 S.o2        1 MOL      -0.1624
     11 C9        119.0647  133.1939   63.7645 C.ar        1 MOL       0.0589
     12 C10       118.7937  131.8189   63.4333 C.ar        1 MOL       0.0329
     13 C11       115.5836  132.3063   61.8021 C.ar        1 MOL       0.0604
     14 C12       114.2038  132.0530   61.9448 C.ar        1 MOL      -0.0391
     15 C13       113.3188  132.3200   60.8848 C.ar        1 MOL      -0.0719
     16 C14       113.8048  132.8695   59.6862 C.ar        1 MOL      -0.0738
     17 C15       115.1744  133.1533   59.5422 C.ar        1 MOL      -0.0719
     18 C16       116.0586  132.8671   60.5973 C.ar        1 MOL      -0.0391
     19 O1        118.0816  134.8495   61.6912 O.co2       1 MOL      -0.4795
     20 O2        118.6263  135.9965   64.1160 O.co2       1 MOL      -0.4795
     21 O3        116.4804  134.3174   63.8865 O.co2       1 MOL      -0.4795
     22 H1        116.6060  129.5963   62.0642 H           1 MOL       0.0480
     23 H2        118.4320  128.0972   62.3401 H           1 MOL       0.0576
     24 H3        120.4639  128.8265   63.3886 H           1 MOL       0.0477
     25 H4        121.8220  130.5549   64.4013 H           1 MOL       0.0595
     26 H5        122.1895  132.8417   65.0295 H           1 MOL       0.0613
     27 H6        120.5180  134.4851   64.6561 H           1 MOL       0.0604
     28 H7        116.1707  132.4951   63.6797 H           1 MOL       0.2117
     29 H8        113.8401  131.6567   62.8104 H           1 MOL       0.0532
     30 H9        112.3218  132.1186   60.9872 H           1 MOL       0.0586
     31 H10       113.1675  133.0485   58.9131 H           1 MOL       0.0516
     32 H11       115.5239  133.5658   58.6765 H           1 MOL       0.0586
     33 H12       117.0484  133.0865   60.4893 H           1 MOL       0.0532
@<TRIPOS>BOND
     1     1     2  ar
     2     1     9   1
     3     1    12  ar
     4     2     3  ar
     5     3     4  ar
     6     4     5  ar
     7     5     6  ar
     8     5    12  ar
     9     6     7  ar
    10     7     8  ar
    11     8    11  ar
    12     9    13   1
    13    11    10   1
    14    10    19  ar
    15    10    20  ar
    16    10    21  ar
    17    11    12  ar
    18    13    14  ar
    19    13    18  ar
    20    14    15  ar
    21    15    16  ar
    22    16    17  ar
    23    17    18  ar
    24     2    22   1
    25     3    23   1
    26     4    24   1
    27     6    25   1
    28     7    26   1
    29     8    27   1
    30     9    28   1
    31    14    29   1
    32    15    30   1
    33    16    31   1
    34    17    32   1
    35    18    33   1
@<TRIPOS>SUBSTRUCTURE
     1  MOL      1

