@<TRIPOS>MOLECULE
3pxf_ligand_081
    33    35
SMALL
GAST_HUCK
****
This file was generated by PARSER (from files_GN.cpp)

@<TRIPOS>ATOM
      1 C1        125.6150  136.4355   66.4380 C.ar        1 MOL       0.0730
      2 C2        126.9357  136.1553   66.0032 C.ar        1 MOL      -0.0412
      3 C3        127.3608  136.4756   64.7148 C.ar        1 MOL      -0.0768
      4 C4        126.4640  137.0674   63.8235 C.ar        1 MOL      -0.0703
      5 C5        125.1275  137.3188   64.2041 C.ar        1 MOL      -0.0263
      6 C6        124.2622  137.8650   63.2295 C.ar        1 MOL      -0.0593
      7 C7        122.9151  138.0860   63.5272 C.ar        1 MOL      -0.0629
      8 C8        122.4169  137.7298   64.7850 C.ar        1 MOL      -0.0420
      9 N         125.3462  136.2499   67.7566 N.pl3       1 MOL      -0.2710
     10 S         122.3799  136.5145   67.1656 S.o2        1 MOL      -0.1624
     11 C9        123.2475  137.1536   65.7762 C.ar        1 MOL       0.0589
     12 C10       124.6551  136.9834   65.5191 C.ar        1 MOL       0.0329
     13 C11       125.9184  135.3547   68.6097 C.ar        1 MOL       0.0604
     14 C12       126.3412  135.7727   69.8875 C.ar        1 MOL      -0.0391
     15 C13       126.8707  134.8380   70.7986 C.ar        1 MOL      -0.0719
     16 C14       126.9525  133.4767   70.4476 C.ar        1 MOL      -0.0738
     17 C15       126.5177  133.0495   69.1792 C.ar        1 MOL      -0.0719
     18 C16       126.0206  133.9883   68.2571 C.ar        1 MOL      -0.0391
     19 O1        120.7043  136.5192   66.9323 O.co2       1 MOL      -0.4795
     20 O2        122.7100  137.4506   68.5352 O.co2       1 MOL      -0.4795
     21 O3        122.8637  134.9152   67.4280 O.co2       1 MOL      -0.4795
     22 H1        127.6352  135.7735   66.6424 H           1 MOL       0.0480
     23 H2        128.3279  136.2972   64.4337 H           1 MOL       0.0576
     24 H3        126.7954  137.2924   62.8839 H           1 MOL       0.0477
     25 H4        124.5967  138.0868   62.2857 H           1 MOL       0.0595
     26 H5        122.2900  138.4597   62.8098 H           1 MOL       0.0613
     27 H6        121.4156  137.8585   64.9437 H           1 MOL       0.0604
     28 H7        124.6313  136.7782   68.1382 H           1 MOL       0.2117
     29 H8        126.2711  136.7579   70.1556 H           1 MOL       0.0532
     30 H9        127.1915  135.1504   71.7189 H           1 MOL       0.0586
     31 H10       127.3234  132.7981   71.1161 H           1 MOL       0.0516
     32 H11       126.5591  132.0568   68.9300 H           1 MOL       0.0586
     33 H12       125.6985  133.6622   67.3420 H           1 MOL       0.0532
@<TRIPOS>BOND
     1     1     2  ar
     2     1     9   1
     3     1    12  ar
     4     2     3  ar
     5     3     4  ar
     6     4     5  ar
     7     5     6  ar
     8     5    12  ar
     9     6     7  ar
    10     7     8  ar
    11     8    11  ar
    12     9    13   1
    13    11    10   1
    14    10    19  ar
    15    10    20  ar
    16    10    21  ar
    17    11    12  ar
    18    13    14  ar
    19    13    18  ar
    20    14    15  ar
    21    15    16  ar
    22    16    17  ar
    23    17    18  ar
    24     2    22   1
    25     3    23   1
    26     4    24   1
    27     6    25   1
    28     7    26   1
    29     8    27   1
    30     9    28   1
    31    14    29   1
    32    15    30   1
    33    16    31   1
    34    17    32   1
    35    18    33   1
@<TRIPOS>SUBSTRUCTURE
     1  MOL      1

