@<TRIPOS>MOLECULE
3pxf_ligand_045
    33    35
SMALL
GAST_HUCK
****
This file was generated by PARSER (from files_GN.cpp)

@<TRIPOS>ATOM
      1 C1        117.5458  132.9558   60.9242 C.ar        1 MOL       0.0730
      2 C2        118.4615  133.4882   59.9810 C.ar        1 MOL      -0.0412
      3 C3        119.3111  132.6534   59.2502 C.ar        1 MOL      -0.0768
      4 C4        119.3244  131.2841   59.5176 C.ar        1 MOL      -0.0703
      5 C5        118.5025  130.7462   60.5332 C.ar        1 MOL      -0.0263
      6 C6        118.6918  129.3834   60.8421 C.ar        1 MOL      -0.0593
      7 C7        117.9574  128.7871   61.8638 C.ar        1 MOL      -0.0629
      8 C8        116.9926  129.5284   62.5467 C.ar        1 MOL      -0.0420
      9 N         116.6924  133.9008   61.3871 N.pl3       1 MOL      -0.2710
     10 S         115.6207  131.6504   63.3528 S.o2        1 MOL      -0.1624
     11 C9        116.7787  130.8978   62.2696 C.ar        1 MOL       0.0589
     12 C10       117.5578  131.5557   61.2518 C.ar        1 MOL       0.0329
     13 C11       115.3861  134.0094   61.0204 C.ar        1 MOL       0.0604
     14 C12       114.6040  134.9698   61.6942 C.ar        1 MOL      -0.0391
     15 C13       113.2336  135.1078   61.4094 C.ar        1 MOL      -0.0719
     16 C14       112.6386  134.3064   60.4219 C.ar        1 MOL      -0.0738
     17 C15       113.4236  133.3987   59.6874 C.ar        1 MOL      -0.0719
     18 C16       114.7884  133.2631   59.9760 C.ar        1 MOL      -0.0391
     19 O1        115.0210  130.5536   64.5049 O.co2       1 MOL      -0.4795
     20 O2        114.2697  132.2109   62.4886 O.co2       1 MOL      -0.4795
     21 O3        116.3518  132.9292   64.1930 O.co2       1 MOL      -0.4795
     22 H1        118.4583  134.4886   59.7612 H           1 MOL       0.0480
     23 H2        119.9206  133.0417   58.5279 H           1 MOL       0.0576
     24 H3        119.9593  130.6916   58.9841 H           1 MOL       0.0477
     25 H4        119.3921  128.8210   60.3498 H           1 MOL       0.0595
     26 H5        118.1181  127.8049   62.1092 H           1 MOL       0.0613
     27 H6        116.4692  129.0337   63.2697 H           1 MOL       0.0604
     28 H7        117.1094  134.7687   61.5696 H           1 MOL       0.2117
     29 H8        115.0206  135.5639   62.4201 H           1 MOL       0.0532
     30 H9        112.6644  135.7749   61.9389 H           1 MOL       0.0586
     31 H10       111.6392  134.3913   60.2289 H           1 MOL       0.0516
     32 H11       113.0023  132.8243   58.9605 H           1 MOL       0.0586
     33 H12       115.3433  132.5955   59.4269 H           1 MOL       0.0532
@<TRIPOS>BOND
     1     1     2  ar
     2     1     9   1
     3     1    12  ar
     4     2     3  ar
     5     3     4  ar
     6     4     5  ar
     7     5     6  ar
     8     5    12  ar
     9     6     7  ar
    10     7     8  ar
    11     8    11  ar
    12     9    13   1
    13    11    10   1
    14    10    19  ar
    15    10    20  ar
    16    10    21  ar
    17    11    12  ar
    18    13    14  ar
    19    13    18  ar
    20    14    15  ar
    21    15    16  ar
    22    16    17  ar
    23    17    18  ar
    24     2    22   1
    25     3    23   1
    26     4    24   1
    27     6    25   1
    28     7    26   1
    29     8    27   1
    30     9    28   1
    31    14    29   1
    32    15    30   1
    33    16    31   1
    34    17    32   1
    35    18    33   1
@<TRIPOS>SUBSTRUCTURE
     1  MOL      1

