@<TRIPOS>MOLECULE
3pxf_ligand_012
    33    35
SMALL
GAST_HUCK
****
This file was generated by PARSER (from files_GN.cpp)

@<TRIPOS>ATOM
      1 C1        122.3334  132.2026   63.9608 C.ar        1 MOL       0.0730
      2 C2        121.5384  133.3711   64.1314 C.ar        1 MOL      -0.0412
      3 C3        121.8176  134.3099   65.1236 C.ar        1 MOL      -0.0768
      4 C4        122.9157  134.1113   65.9696 C.ar        1 MOL      -0.0703
      5 C5        123.6887  132.9302   65.8697 C.ar        1 MOL      -0.0263
      6 C6        124.7359  132.7763   66.8055 C.ar        1 MOL      -0.0593
      7 C7        125.5235  131.6221   66.7870 C.ar        1 MOL      -0.0629
      8 C8        125.2618  130.6126   65.8545 C.ar        1 MOL      -0.0420
      9 N         122.0732  131.4159   62.8793 N.pl3       1 MOL      -0.2710
     10 S         123.9215  129.2581   63.9718 S.o2        1 MOL      -0.1624
     11 C9        124.1988  130.7185   64.9179 C.ar        1 MOL       0.0589
     12 C10       123.4066  131.9273   64.8837 C.ar        1 MOL       0.0329
     13 C11       120.8763  130.9866   62.3923 C.ar        1 MOL       0.0604
     14 C12       120.5303  131.2523   61.0505 C.ar        1 MOL      -0.0391
     15 C13       119.3636  130.6981   60.4926 C.ar        1 MOL      -0.0719
     16 C14       118.5044  129.9066   61.2906 C.ar        1 MOL      -0.0738
     17 C15       118.8333  129.6555   62.6352 C.ar        1 MOL      -0.0719
     18 C16       120.0295  130.1703   63.1819 C.ar        1 MOL      -0.0391
     19 O1        125.0197  128.0321   64.3608 O.co2       1 MOL      -0.4795
     20 O2        124.1115  129.6292   62.3310 O.co2       1 MOL      -0.4795
     21 O3        122.3577  128.6833   64.2715 O.co2       1 MOL      -0.4795
     22 H1        120.7802  133.5813   63.4848 H           1 MOL       0.0480
     23 H2        121.2512  135.1637   65.2061 H           1 MOL       0.0576
     24 H3        123.1176  134.8287   66.6683 H           1 MOL       0.0477
     25 H4        124.9326  133.4925   67.5177 H           1 MOL       0.0595
     26 H5        126.2756  131.5048   67.4742 H           1 MOL       0.0613
     27 H6        125.8472  129.7775   65.8971 H           1 MOL       0.0604
     28 H7        122.8332  131.0945   62.3945 H           1 MOL       0.2117
     29 H8        121.1396  131.8353   60.4672 H           1 MOL       0.0532
     30 H9        119.1340  130.8698   59.5139 H           1 MOL       0.0586
     31 H10       117.6400  129.5310   60.8983 H           1 MOL       0.0516
     32 H11       118.2206  129.0729   63.2173 H           1 MOL       0.0586
     33 H12       120.2973  129.9269   64.1447 H           1 MOL       0.0532
@<TRIPOS>BOND
     1     1     2  ar
     2     1     9   1
     3     1    12  ar
     4     2     3  ar
     5     3     4  ar
     6     4     5  ar
     7     5     6  ar
     8     5    12  ar
     9     6     7  ar
    10     7     8  ar
    11     8    11  ar
    12     9    13   1
    13    11    10   1
    14    10    19  ar
    15    10    20  ar
    16    10    21  ar
    17    11    12  ar
    18    13    14  ar
    19    13    18  ar
    20    14    15  ar
    21    15    16  ar
    22    16    17  ar
    23    17    18  ar
    24     2    22   1
    25     3    23   1
    26     4    24   1
    27     6    25   1
    28     7    26   1
    29     8    27   1
    30     9    28   1
    31    14    29   1
    32    15    30   1
    33    16    31   1
    34    17    32   1
    35    18    33   1
@<TRIPOS>SUBSTRUCTURE
     1  MOL      1

