@<TRIPOS>MOLECULE
3pxf_ligand_028
    33    35
SMALL
GAST_HUCK
****
This file was generated by PARSER (from files_GN.cpp)

@<TRIPOS>ATOM
      1 C1        127.2314  131.1323   65.4069 C.ar        1 MOL       0.0730
      2 C2        128.3397  131.8776   65.8633 C.ar        1 MOL      -0.0412
      3 C3        128.3513  133.2646   65.7943 C.ar        1 MOL      -0.0768
      4 C4        127.2747  133.9349   65.1958 C.ar        1 MOL      -0.0703
      5 C5        126.1674  133.2139   64.6888 C.ar        1 MOL      -0.0263
      6 C6        125.1234  133.9706   64.1306 C.ar        1 MOL      -0.0593
      7 C7        123.9493  133.3355   63.7294 C.ar        1 MOL      -0.0629
      8 C8        123.8551  131.9368   63.7942 C.ar        1 MOL      -0.0420
      9 N         127.3179  129.7767   65.4938 N.pl3       1 MOL      -0.2710
     10 S         124.4379  129.3862   64.1555 S.o2        1 MOL      -0.1624
     11 C9        124.9194  131.1077   64.2414 C.ar        1 MOL       0.0589
     12 C10       126.1073  131.7719   64.7602 C.ar        1 MOL       0.0329
     13 C11       127.6197  128.9351   66.5266 C.ar        1 MOL       0.0604
     14 C12       127.7360  129.3713   67.8689 C.ar        1 MOL      -0.0391
     15 C13       127.8462  128.4263   68.9065 C.ar        1 MOL      -0.0719
     16 C14       127.8756  127.0484   68.6020 C.ar        1 MOL      -0.0738
     17 C15       127.8449  126.6060   67.2637 C.ar        1 MOL      -0.0719
     18 C16       127.6874  127.5531   66.2276 C.ar        1 MOL      -0.0391
     19 O1        125.5585  128.1567   64.5435 O.co2       1 MOL      -0.4795
     20 O2        124.0117  129.0018   62.5620 O.co2       1 MOL      -0.4795
     21 O3        123.0891  129.1424   65.1545 O.co2       1 MOL      -0.4795
     22 H1        129.1796  131.4005   66.1906 H           1 MOL       0.0480
     23 H2        129.1443  133.7857   66.1476 H           1 MOL       0.0576
     24 H3        127.3019  134.9748   65.1318 H           1 MOL       0.0477
     25 H4        125.2053  135.0036   64.0376 H           1 MOL       0.0595
     26 H5        123.1708  133.9008   63.3711 H           1 MOL       0.0613
     27 H6        122.9389  131.5427   63.5267 H           1 MOL       0.0604
     28 H7        127.1899  129.3501   64.6693 H           1 MOL       0.2117
     29 H8        127.6788  130.3619   68.0881 H           1 MOL       0.0532
     30 H9        127.8658  128.7290   69.8769 H           1 MOL       0.0586
     31 H10       127.9006  126.3643   69.3523 H           1 MOL       0.0516
     32 H11       127.9077  125.5893   67.0533 H           1 MOL       0.0586
     33 H12       127.6341  127.2332   65.2648 H           1 MOL       0.0532
@<TRIPOS>BOND
     1     1     2  ar
     2     1     9   1
     3     1    12  ar
     4     2     3  ar
     5     3     4  ar
     6     4     5  ar
     7     5     6  ar
     8     5    12  ar
     9     6     7  ar
    10     7     8  ar
    11     8    11  ar
    12     9    13   1
    13    11    10   1
    14    10    19  ar
    15    10    20  ar
    16    10    21  ar
    17    11    12  ar
    18    13    14  ar
    19    13    18  ar
    20    14    15  ar
    21    15    16  ar
    22    16    17  ar
    23    17    18  ar
    24     2    22   1
    25     3    23   1
    26     4    24   1
    27     6    25   1
    28     7    26   1
    29     8    27   1
    30     9    28   1
    31    14    29   1
    32    15    30   1
    33    16    31   1
    34    17    32   1
    35    18    33   1
@<TRIPOS>SUBSTRUCTURE
     1  MOL      1

