@<TRIPOS>MOLECULE
3pxf_ligand_043
    33    35
SMALL
GAST_HUCK
****
This file was generated by PARSER (from files_GN.cpp)

@<TRIPOS>ATOM
      1 C1        129.2007  127.7972   71.9381 C.ar        1 MOL       0.0730
      2 C2        129.2975  127.4883   73.3198 C.ar        1 MOL      -0.0412
      3 C3        130.3164  126.6714   73.8168 C.ar        1 MOL      -0.0768
      4 C4        131.2671  126.1554   72.9436 C.ar        1 MOL      -0.0703
      5 C5        131.2486  126.4897   71.5732 C.ar        1 MOL      -0.0263
      6 C6        132.2981  126.0002   70.7656 C.ar        1 MOL      -0.0593
      7 C7        132.3669  126.3619   69.4204 C.ar        1 MOL      -0.0629
      8 C8        131.4083  127.2315   68.8857 C.ar        1 MOL      -0.0420
      9 N         128.0891  128.4537   71.5181 N.pl3       1 MOL      -0.2710
     10 S         129.3985  128.9823   68.8481 S.o2        1 MOL      -0.1624
     11 C9        130.3480  127.7538   69.6646 C.ar        1 MOL       0.0589
     12 C10       130.2218  127.3433   71.0352 C.ar        1 MOL       0.0329
     13 C11       127.5470  129.6008   72.0150 C.ar        1 MOL       0.0604
     14 C12       126.1483  129.7744   71.9925 C.ar        1 MOL      -0.0391
     15 C13       125.5812  131.0400   72.2646 C.ar        1 MOL      -0.0719
     16 C14       126.4248  132.1559   72.4820 C.ar        1 MOL      -0.0738
     17 C15       127.8199  132.0013   72.4847 C.ar        1 MOL      -0.0719
     18 C16       128.3838  130.7364   72.2187 C.ar        1 MOL      -0.0391
     19 O1        129.8834  129.2073   67.2443 O.co2       1 MOL      -0.4795
     20 O2        129.5454  130.4753   69.6395 O.co2       1 MOL      -0.4795
     21 O3        127.7772  128.4908   68.8567 O.co2       1 MOL      -0.4795
     22 H1        128.5792  127.8006   73.9903 H           1 MOL       0.0480
     23 H2        130.3536  126.4521   74.8205 H           1 MOL       0.0576
     24 H3        131.9972  125.5530   73.3221 H           1 MOL       0.0477
     25 H4        133.0340  125.4015   71.1461 H           1 MOL       0.0595
     26 H5        133.1329  126.0211   68.8390 H           1 MOL       0.0613
     27 H6        131.5139  127.5039   67.9041 H           1 MOL       0.0604
     28 H7        127.6462  128.1009   70.7205 H           1 MOL       0.2117
     29 H8        125.5336  128.9790   71.8259 H           1 MOL       0.0532
     30 H9        124.5657  131.1574   72.2684 H           1 MOL       0.0586
     31 H10       126.0140  133.0796   72.6342 H           1 MOL       0.0516
     32 H11       128.4308  132.8101   72.6671 H           1 MOL       0.0586
     33 H12       129.4005  130.6534   72.1835 H           1 MOL       0.0532
@<TRIPOS>BOND
     1     1     2  ar
     2     1     9   1
     3     1    12  ar
     4     2     3  ar
     5     3     4  ar
     6     4     5  ar
     7     5     6  ar
     8     5    12  ar
     9     6     7  ar
    10     7     8  ar
    11     8    11  ar
    12     9    13   1
    13    11    10   1
    14    10    19  ar
    15    10    20  ar
    16    10    21  ar
    17    11    12  ar
    18    13    14  ar
    19    13    18  ar
    20    14    15  ar
    21    15    16  ar
    22    16    17  ar
    23    17    18  ar
    24     2    22   1
    25     3    23   1
    26     4    24   1
    27     6    25   1
    28     7    26   1
    29     8    27   1
    30     9    28   1
    31    14    29   1
    32    15    30   1
    33    16    31   1
    34    17    32   1
    35    18    33   1
@<TRIPOS>SUBSTRUCTURE
     1  MOL      1

