@<TRIPOS>MOLECULE
3pxf_ligand_050
    33    35
SMALL
GAST_HUCK
****
This file was generated by PARSER (from files_GN.cpp)

@<TRIPOS>ATOM
      1 C1        119.1103  141.0175   72.7307 C.ar        1 MOL       0.0730
      2 C2        119.0997  140.9356   74.1459 C.ar        1 MOL      -0.0412
      3 C3        119.8632  139.9685   74.8135 C.ar        1 MOL      -0.0768
      4 C4        120.6794  139.0996   74.0820 C.ar        1 MOL      -0.0703
      5 C5        120.8188  139.2660   72.6845 C.ar        1 MOL      -0.0263
      6 C6        121.7236  138.4211   72.0067 C.ar        1 MOL      -0.0593
      7 C7        121.9671  138.6040   70.6407 C.ar        1 MOL      -0.0629
      8 C8        121.3636  139.6758   69.9715 C.ar        1 MOL      -0.0420
      9 N         118.0366  141.7193   72.2667 N.pl3       1 MOL      -0.2710
     10 S         120.1443  142.0282   69.7424 S.o2        1 MOL      -0.1624
     11 C9        120.4708  140.5523   70.6345 C.ar        1 MOL       0.0589
     12 C10       120.0962  140.2917   71.9908 C.ar        1 MOL       0.0329
     13 C11       117.1584  141.4168   71.2622 C.ar        1 MOL       0.0604
     14 C12       117.1361  140.1938   70.5548 C.ar        1 MOL      -0.0391
     15 C13       116.1027  139.9065   69.6463 C.ar        1 MOL      -0.0719
     16 C14       115.0620  140.8312   69.4414 C.ar        1 MOL      -0.0738
     17 C15       115.0660  142.0517   70.1351 C.ar        1 MOL      -0.0719
     18 C16       116.1042  142.3381   71.0439 C.ar        1 MOL      -0.0391
     19 O1        119.7909  143.3331   70.7550 O.co2       1 MOL      -0.4795
     20 O2        118.8696  141.7661   68.6632 O.co2       1 MOL      -0.4795
     21 O3        121.4964  142.4597   68.8195 O.co2       1 MOL      -0.4795
     22 H1        118.4524  141.4956   74.7092 H           1 MOL       0.0480
     23 H2        119.7802  139.8632   75.8283 H           1 MOL       0.0576
     24 H3        121.1891  138.3704   74.5831 H           1 MOL       0.0477
     25 H4        122.2239  137.6663   72.4911 H           1 MOL       0.0595
     26 H5        122.6323  137.9962   70.1512 H           1 MOL       0.0613
     27 H6        121.6279  139.8225   68.9957 H           1 MOL       0.0604
     28 H7        117.6598  142.3581   72.9018 H           1 MOL       0.2117
     29 H8        117.8524  139.4872   70.7037 H           1 MOL       0.0532
     30 H9        116.0894  139.0147   69.1408 H           1 MOL       0.0586
     31 H10       114.2929  140.6094   68.8014 H           1 MOL       0.0516
     32 H11       114.3026  142.7217   70.0052 H           1 MOL       0.0586
     33 H12       116.0747  143.2235   71.5560 H           1 MOL       0.0532
@<TRIPOS>BOND
     1     1     2  ar
     2     1     9   1
     3     1    12  ar
     4     2     3  ar
     5     3     4  ar
     6     4     5  ar
     7     5     6  ar
     8     5    12  ar
     9     6     7  ar
    10     7     8  ar
    11     8    11  ar
    12     9    13   1
    13    11    10   1
    14    10    19  ar
    15    10    20  ar
    16    10    21  ar
    17    11    12  ar
    18    13    14  ar
    19    13    18  ar
    20    14    15  ar
    21    15    16  ar
    22    16    17  ar
    23    17    18  ar
    24     2    22   1
    25     3    23   1
    26     4    24   1
    27     6    25   1
    28     7    26   1
    29     8    27   1
    30     9    28   1
    31    14    29   1
    32    15    30   1
    33    16    31   1
    34    17    32   1
    35    18    33   1
@<TRIPOS>SUBSTRUCTURE
     1  MOL      1

