@<TRIPOS>MOLECULE
3pxf_ligand_076
    33    35
SMALL
GAST_HUCK
****
This file was generated by PARSER (from files_GN.cpp)

@<TRIPOS>ATOM
      1 C1        123.7059  132.3715   65.2868 C.ar        1 MOL       0.0730
      2 C2        124.8836  131.5783   65.2660 C.ar        1 MOL      -0.0412
      3 C3        124.8368  130.2267   64.9094 C.ar        1 MOL      -0.0768
      4 C4        123.6137  129.6394   64.5666 C.ar        1 MOL      -0.0703
      5 C5        122.4373  130.4250   64.5209 C.ar        1 MOL      -0.0263
      6 C6        121.2284  129.7817   64.1588 C.ar        1 MOL      -0.0593
      7 C7        120.0365  130.5108   64.0824 C.ar        1 MOL      -0.0629
      8 C8        120.0519  131.8914   64.2909 C.ar        1 MOL      -0.0420
      9 N         123.7559  133.5880   65.8835 N.pl3       1 MOL      -0.2710
     10 S         121.1198  134.3296   64.5512 S.o2        1 MOL      -0.1624
     11 C9        121.2554  132.5798   64.6033 C.ar        1 MOL       0.0589
     12 C10       122.4634  131.8254   64.8218 C.ar        1 MOL       0.0329
     13 C11       124.6456  134.6093   65.7390 C.ar        1 MOL       0.0604
     14 C12       125.0930  135.2957   66.8868 C.ar        1 MOL      -0.0391
     15 C13       125.8991  136.4483   66.7640 C.ar        1 MOL      -0.0719
     16 C14       126.2345  136.9372   65.4814 C.ar        1 MOL      -0.0738
     17 C15       125.7795  136.2703   64.3301 C.ar        1 MOL      -0.0719
     18 C16       124.9835  135.1121   64.4556 C.ar        1 MOL      -0.0391
     19 O1        121.3657  134.9501   66.1095 O.co2       1 MOL      -0.4795
     20 O2        119.5830  134.8076   64.0174 O.co2       1 MOL      -0.4795
     21 O3        122.2782  134.9706   63.4959 O.co2       1 MOL      -0.4795
     22 H1        125.7716  131.9469   65.6051 H           1 MOL       0.0480
     23 H2        125.6803  129.6530   64.9580 H           1 MOL       0.0576
     24 H3        123.5953  128.6399   64.3471 H           1 MOL       0.0477
     25 H4        121.2042  128.7727   63.9788 H           1 MOL       0.0595
     26 H5        119.1644  130.0403   63.8216 H           1 MOL       0.0613
     27 H6        119.1692  132.3904   64.1746 H           1 MOL       0.0604
     28 H7        123.0260  133.7926   66.4714 H           1 MOL       0.2117
     29 H8        124.8260  134.9742   67.8173 H           1 MOL       0.0532
     30 H9        126.2087  136.9461   67.5966 H           1 MOL       0.0586
     31 H10       126.8165  137.7780   65.3900 H           1 MOL       0.0516
     32 H11       125.9989  136.6364   63.4036 H           1 MOL       0.0586
     33 H12       124.6277  134.6576   63.6146 H           1 MOL       0.0532
@<TRIPOS>BOND
     1     1     2  ar
     2     1     9   1
     3     1    12  ar
     4     2     3  ar
     5     3     4  ar
     6     4     5  ar
     7     5     6  ar
     8     5    12  ar
     9     6     7  ar
    10     7     8  ar
    11     8    11  ar
    12     9    13   1
    13    11    10   1
    14    10    19  ar
    15    10    20  ar
    16    10    21  ar
    17    11    12  ar
    18    13    14  ar
    19    13    18  ar
    20    14    15  ar
    21    15    16  ar
    22    16    17  ar
    23    17    18  ar
    24     2    22   1
    25     3    23   1
    26     4    24   1
    27     6    25   1
    28     7    26   1
    29     8    27   1
    30     9    28   1
    31    14    29   1
    32    15    30   1
    33    16    31   1
    34    17    32   1
    35    18    33   1
@<TRIPOS>SUBSTRUCTURE
     1  MOL      1

