@<TRIPOS>MOLECULE
3pxf_ligand_013
    33    35
SMALL
GAST_HUCK
****
This file was generated by PARSER (from files_GN.cpp)

@<TRIPOS>ATOM
      1 C1        118.4973  130.9451   61.7837 C.ar        1 MOL       0.0730
      2 C2        118.9812  129.6431   62.0752 C.ar        1 MOL      -0.0412
      3 C3        118.1868  128.7165   62.7604 C.ar        1 MOL      -0.0768
      4 C4        116.8888  129.0748   63.1578 C.ar        1 MOL      -0.0703
      5 C5        116.3572  130.3363   62.8015 C.ar        1 MOL      -0.0263
      6 C6        115.0394  130.6324   63.1973 C.ar        1 MOL      -0.0593
      7 C7        114.4371  131.8294   62.7960 C.ar        1 MOL      -0.0629
      8 C8        115.1343  132.6981   61.9415 C.ar        1 MOL      -0.0420
      9 N         119.4583  131.8044   61.3694 N.pl3       1 MOL      -0.2710
     10 S         117.0054  133.4319   60.1560 S.o2        1 MOL      -0.1624
     11 C9        116.4559  132.4349   61.5051 C.ar        1 MOL       0.0589
     12 C10       117.1243  131.2819   62.0292 C.ar        1 MOL       0.0329
     13 C11       120.2456  132.4276   62.2893 C.ar        1 MOL       0.0604
     14 C12       121.4512  131.7659   62.6635 C.ar        1 MOL      -0.0391
     15 C13       122.3245  132.3204   63.6186 C.ar        1 MOL      -0.0719
     16 C14       122.0418  133.5934   64.1829 C.ar        1 MOL      -0.0738
     17 C15       120.8331  134.2470   63.8306 C.ar        1 MOL      -0.0719
     18 C16       119.9404  133.6894   62.8947 C.ar        1 MOL      -0.0391
     19 O1        118.0858  132.5940   59.1500 O.co2       1 MOL      -0.4795
     20 O2        117.7731  134.8197   60.7668 O.co2       1 MOL      -0.4795
     21 O3        115.6668  133.8916   59.2314 O.co2       1 MOL      -0.4795
     22 H1        119.9533  129.3835   61.8608 H           1 MOL       0.0480
     23 H2        118.5695  127.7991   63.0097 H           1 MOL       0.0576
     24 H3        116.3333  128.3879   63.6937 H           1 MOL       0.0477
     25 H4        114.4922  129.9767   63.7766 H           1 MOL       0.0595
     26 H5        113.4759  132.0426   63.0837 H           1 MOL       0.0613
     27 H6        114.6326  133.5251   61.6056 H           1 MOL       0.0604
     28 H7        120.0036  131.4063   60.6657 H           1 MOL       0.2117
     29 H8        121.6892  130.8507   62.2573 H           1 MOL       0.0532
     30 H9        123.1899  131.8476   63.8636 H           1 MOL       0.0586
     31 H10       122.6672  133.9905   64.8898 H           1 MOL       0.0516
     32 H11       120.6237  135.1516   64.2638 H           1 MOL       0.0586
     33 H12       119.0650  134.1745   62.6499 H           1 MOL       0.0532
@<TRIPOS>BOND
     1     1     2  ar
     2     1     9   1
     3     1    12  ar
     4     2     3  ar
     5     3     4  ar
     6     4     5  ar
     7     5     6  ar
     8     5    12  ar
     9     6     7  ar
    10     7     8  ar
    11     8    11  ar
    12     9    13   1
    13    11    10   1
    14    10    19  ar
    15    10    20  ar
    16    10    21  ar
    17    11    12  ar
    18    13    14  ar
    19    13    18  ar
    20    14    15  ar
    21    15    16  ar
    22    16    17  ar
    23    17    18  ar
    24     2    22   1
    25     3    23   1
    26     4    24   1
    27     6    25   1
    28     7    26   1
    29     8    27   1
    30     9    28   1
    31    14    29   1
    32    15    30   1
    33    16    31   1
    34    17    32   1
    35    18    33   1
@<TRIPOS>SUBSTRUCTURE
     1  MOL      1

