@<TRIPOS>MOLECULE
3pxf_ligand_057
    33    35
SMALL
GAST_HUCK
****
This file was generated by PARSER (from files_GN.cpp)

@<TRIPOS>ATOM
      1 C1        124.8988  133.5710   66.6942 C.ar        1 MOL       0.0730
      2 C2        125.6885  132.4222   66.4336 C.ar        1 MOL      -0.0412
      3 C3        125.2053  131.3703   65.6472 C.ar        1 MOL      -0.0768
      4 C4        123.9055  131.4278   65.1363 C.ar        1 MOL      -0.0703
      5 C5        123.1039  132.5693   65.3524 C.ar        1 MOL      -0.0263
      6 C6        121.7937  132.5727   64.8274 C.ar        1 MOL      -0.0593
      7 C7        120.9743  133.6947   64.9822 C.ar        1 MOL      -0.0629
      8 C8        121.4831  134.8460   65.5940 C.ar        1 MOL      -0.0420
      9 N         125.2924  134.4498   67.6578 N.pl3       1 MOL      -0.2710
     10 S         123.4018  136.5077   66.4425 S.o2        1 MOL      -0.1624
     11 C9        122.8068  134.8906   66.0909 C.ar        1 MOL       0.0589
     12 C10       123.6120  133.7008   66.0749 C.ar        1 MOL       0.0329
     13 C11       126.5024  135.0431   67.8886 C.ar        1 MOL       0.0604
     14 C12       126.9730  135.0998   69.2189 C.ar        1 MOL      -0.0391
     15 C13       128.1853  135.7460   69.5250 C.ar        1 MOL      -0.0719
     16 C14       128.9290  136.3662   68.5052 C.ar        1 MOL      -0.0738
     17 C15       128.4538  136.3495   67.1819 C.ar        1 MOL      -0.0719
     18 C16       127.2418  135.7020   66.8773 C.ar        1 MOL      -0.0391
     19 O1        122.1462  137.6393   66.4333 O.co2       1 MOL      -0.4795
     20 O2        124.5428  136.9665   65.2820 O.co2       1 MOL      -0.4795
     21 O3        124.1165  136.5668   67.9723 O.co2       1 MOL      -0.4795
     22 H1        126.5960  132.2918   66.8831 H           1 MOL       0.0480
     23 H2        125.7797  130.5380   65.4929 H           1 MOL       0.0576
     24 H3        123.5545  130.6287   64.6005 H           1 MOL       0.0477
     25 H4        121.4201  131.7577   64.3324 H           1 MOL       0.0595
     26 H5        120.0224  133.6899   64.6076 H           1 MOL       0.0613
     27 H6        120.8760  135.6683   65.6296 H           1 MOL       0.0604
     28 H7        124.6240  134.6327   68.3340 H           1 MOL       0.2117
     29 H8        126.4388  134.6623   69.9737 H           1 MOL       0.0532
     30 H9        128.5228  135.7701   70.4899 H           1 MOL       0.0586
     31 H10       129.8076  136.8395   68.7277 H           1 MOL       0.0516
     32 H11       128.9833  136.8179   66.4432 H           1 MOL       0.0586
     33 H12       126.8925  135.7320   65.9170 H           1 MOL       0.0532
@<TRIPOS>BOND
     1     1     2  ar
     2     1     9   1
     3     1    12  ar
     4     2     3  ar
     5     3     4  ar
     6     4     5  ar
     7     5     6  ar
     8     5    12  ar
     9     6     7  ar
    10     7     8  ar
    11     8    11  ar
    12     9    13   1
    13    11    10   1
    14    10    19  ar
    15    10    20  ar
    16    10    21  ar
    17    11    12  ar
    18    13    14  ar
    19    13    18  ar
    20    14    15  ar
    21    15    16  ar
    22    16    17  ar
    23    17    18  ar
    24     2    22   1
    25     3    23   1
    26     4    24   1
    27     6    25   1
    28     7    26   1
    29     8    27   1
    30     9    28   1
    31    14    29   1
    32    15    30   1
    33    16    31   1
    34    17    32   1
    35    18    33   1
@<TRIPOS>SUBSTRUCTURE
     1  MOL      1

