@<TRIPOS>MOLECULE
3pxf_ligand_049
    33    35
SMALL
GAST_HUCK
****
This file was generated by PARSER (from files_GN.cpp)

@<TRIPOS>ATOM
      1 C1        122.3818  137.0035   67.2882 C.ar        1 MOL       0.0730
      2 C2        122.0997  137.6845   68.4877 C.ar        1 MOL      -0.0412
      3 C3        122.5726  138.9840   68.7080 C.ar        1 MOL      -0.0768
      4 C4        123.3758  139.6027   67.7466 C.ar        1 MOL      -0.0703
      5 C5        123.7556  138.8997   66.5789 C.ar        1 MOL      -0.0263
      6 C6        124.6299  139.5530   65.6802 C.ar        1 MOL      -0.0593
      7 C7        125.0912  138.8842   64.5413 C.ar        1 MOL      -0.0629
      8 C8        124.7061  137.5631   64.3040 C.ar        1 MOL      -0.0420
      9 N         121.6470  135.8804   67.1055 N.pl3       1 MOL      -0.2710
     10 S         123.7341  135.1625   64.8316 S.o2        1 MOL      -0.1624
     11 C9        123.8537  136.8696   65.1942 C.ar        1 MOL       0.0589
     12 C10       123.2960  137.5564   66.3317 C.ar        1 MOL       0.0329
     13 C11       120.4468  135.8224   66.4667 C.ar        1 MOL       0.0604
     14 C12       120.1507  134.6685   65.6943 C.ar        1 MOL      -0.0391
     15 C13       118.8805  134.5109   65.0983 C.ar        1 MOL      -0.0719
     16 C14       117.8849  135.4771   65.2872 C.ar        1 MOL      -0.0738
     17 C15       118.1507  136.6108   66.0788 C.ar        1 MOL      -0.0719
     18 C16       119.4217  136.7782   66.6531 C.ar        1 MOL      -0.0391
     19 O1        123.5790  134.2223   66.2334 O.co2       1 MOL      -0.4795
     20 O2        125.1117  134.6090   64.0180 O.co2       1 MOL      -0.4795
     21 O3        122.4159  134.9277   63.8001 O.co2       1 MOL      -0.4795
     22 H1        121.4732  137.2784   69.1889 H           1 MOL       0.0480
     23 H2        122.3109  139.4930   69.5576 H           1 MOL       0.0576
     24 H3        123.7041  140.5533   67.9196 H           1 MOL       0.0477
     25 H4        124.9612  140.4976   65.8613 H           1 MOL       0.0595
     26 H5        125.7417  139.3534   63.9026 H           1 MOL       0.0613
     27 H6        125.1038  137.1090   63.4809 H           1 MOL       0.0604
     28 H7        121.7368  135.2050   67.8202 H           1 MOL       0.2117
     29 H8        120.8529  133.9364   65.5725 H           1 MOL       0.0532
     30 H9        118.6926  133.6828   64.5211 H           1 MOL       0.0586
     31 H10       116.9597  135.3504   64.8756 H           1 MOL       0.0516
     32 H11       117.4164  137.2965   66.2517 H           1 MOL       0.0586
     33 H12       119.5698  137.5812   67.2765 H           1 MOL       0.0532
@<TRIPOS>BOND
     1     1     2  ar
     2     1     9   1
     3     1    12  ar
     4     2     3  ar
     5     3     4  ar
     6     4     5  ar
     7     5     6  ar
     8     5    12  ar
     9     6     7  ar
    10     7     8  ar
    11     8    11  ar
    12     9    13   1
    13    11    10   1
    14    10    19  ar
    15    10    20  ar
    16    10    21  ar
    17    11    12  ar
    18    13    14  ar
    19    13    18  ar
    20    14    15  ar
    21    15    16  ar
    22    16    17  ar
    23    17    18  ar
    24     2    22   1
    25     3    23   1
    26     4    24   1
    27     6    25   1
    28     7    26   1
    29     8    27   1
    30     9    28   1
    31    14    29   1
    32    15    30   1
    33    16    31   1
    34    17    32   1
    35    18    33   1
@<TRIPOS>SUBSTRUCTURE
     1  MOL      1

