@<TRIPOS>MOLECULE
3pxf_ligand_000
    33    35
SMALL
GAST_HUCK
****
This file was generated by PARSER (from files_GN.cpp)

@<TRIPOS>ATOM
      1 C1        114.8150  134.6349   61.6144 C.ar        1 MOL       0.0730
      2 C2        116.1389  134.8473   61.1532 C.ar        1 MOL      -0.0412
      3 C3        116.7310  136.1158   61.1836 C.ar        1 MOL      -0.0768
      4 C4        116.0309  137.1863   61.7413 C.ar        1 MOL      -0.0703
      5 C5        114.7107  137.0073   62.2082 C.ar        1 MOL      -0.0263
      6 C6        114.0865  138.0999   62.8519 C.ar        1 MOL      -0.0593
      7 C7        112.7764  137.9883   63.3208 C.ar        1 MOL      -0.0629
      8 C8        112.0365  136.8298   63.0413 C.ar        1 MOL      -0.0420
      9 N         114.3460  133.3667   61.8189 N.pl3       1 MOL      -0.2710
     10 S         111.4538  134.5025   61.8686 S.o2        1 MOL      -0.1624
     11 C9        112.6239  135.7284   62.3661 C.ar        1 MOL       0.0589
     12 C10       114.0270  135.7479   62.0523 C.ar        1 MOL       0.0329
     13 C11       114.9791  132.1980   62.1427 C.ar        1 MOL       0.0604
     14 C12       114.4196  131.4940   63.2393 C.ar        1 MOL      -0.0391
     15 C13       115.0137  130.3020   63.6978 C.ar        1 MOL      -0.0719
     16 C14       116.1795  129.8065   63.0774 C.ar        1 MOL      -0.0738
     17 C15       116.7172  130.4798   61.9621 C.ar        1 MOL      -0.0719
     18 C16       116.1124  131.6574   61.4796 C.ar        1 MOL      -0.0391
     19 O1        111.7359  134.0658   60.2544 O.co2       1 MOL      -0.4795
     20 O2        109.8651  135.0925   61.9616 O.co2       1 MOL      -0.4795
     21 O3        111.5764  133.1335   62.8664 O.co2       1 MOL      -0.4795
     22 H1        116.7208  134.0820   60.8048 H           1 MOL       0.0480
     23 H2        117.6838  136.2463   60.8169 H           1 MOL       0.0576
     24 H3        116.5159  138.0935   61.8217 H           1 MOL       0.0477
     25 H4        114.6025  138.9769   63.0281 H           1 MOL       0.0595
     26 H5        112.3416  138.7746   63.8233 H           1 MOL       0.0613
     27 H6        111.0637  136.8203   63.3400 H           1 MOL       0.0604
     28 H7        113.3889  133.3115   61.9422 H           1 MOL       0.2117
     29 H8        113.5668  131.8420   63.6876 H           1 MOL       0.0532
     30 H9        114.6191  129.8141   64.5006 H           1 MOL       0.0586
     31 H10       116.6322  128.9549   63.4455 H           1 MOL       0.0516
     32 H11       117.5411  130.0999   61.4880 H           1 MOL       0.0586
     33 H12       116.4673  132.0853   60.6193 H           1 MOL       0.0532
@<TRIPOS>BOND
     1     1     2  ar
     2     1     9   1
     3     1    12  ar
     4     2     3  ar
     5     3     4  ar
     6     4     5  ar
     7     5     6  ar
     8     5    12  ar
     9     6     7  ar
    10     7     8  ar
    11     8    11  ar
    12     9    13   1
    13    11    10   1
    14    10    19  ar
    15    10    20  ar
    16    10    21  ar
    17    11    12  ar
    18    13    14  ar
    19    13    18  ar
    20    14    15  ar
    21    15    16  ar
    22    16    17  ar
    23    17    18  ar
    24     2    22   1
    25     3    23   1
    26     4    24   1
    27     6    25   1
    28     7    26   1
    29     8    27   1
    30     9    28   1
    31    14    29   1
    32    15    30   1
    33    16    31   1
    34    17    32   1
    35    18    33   1
@<TRIPOS>SUBSTRUCTURE
     1  MOL      1

