@<TRIPOS>MOLECULE
3pxf_ligand_004
    33    35
SMALL
GAST_HUCK
****
This file was generated by PARSER (from files_GN.cpp)

@<TRIPOS>ATOM
      1 C1        115.0144  132.1957   62.5360 C.ar        1 MOL       0.0730
      2 C2        114.5044  131.2211   63.4313 C.ar        1 MOL      -0.0412
      3 C3        115.1680  129.9982   63.6163 C.ar        1 MOL      -0.0768
      4 C4        116.3568  129.7394   62.9211 C.ar        1 MOL      -0.0703
      5 C5        116.8087  130.6391   61.9346 C.ar        1 MOL      -0.0263
      6 C6        117.9982  130.3416   61.2376 C.ar        1 MOL      -0.0593
      7 C7        118.4301  131.1743   60.1930 C.ar        1 MOL      -0.0629
      8 C8        117.6156  132.2288   59.7712 C.ar        1 MOL      -0.0420
      9 N         114.5072  133.4408   62.7558 N.pl3       1 MOL      -0.2710
     10 S         115.2986  133.4953   59.4689 S.o2        1 MOL      -0.1624
     11 C9        116.3985  132.5219   60.4274 C.ar        1 MOL       0.0589
     12 C10       116.0596  131.8234   61.6327 C.ar        1 MOL       0.0329
     13 C11       115.0370  134.6812   62.5264 C.ar        1 MOL       0.0604
     14 C12       116.4236  134.9555   62.4442 C.ar        1 MOL      -0.0391
     15 C13       116.8812  136.2669   62.1967 C.ar        1 MOL      -0.0719
     16 C14       115.9595  137.3238   62.0761 C.ar        1 MOL      -0.0738
     17 C15       114.5852  137.0732   62.2288 C.ar        1 MOL      -0.0719
     18 C16       114.1299  135.7644   62.4645 C.ar        1 MOL      -0.0391
     19 O1        114.9818  132.6860   58.0165 O.co2       1 MOL      -0.4795
     20 O2        116.0639  134.9533   59.0909 O.co2       1 MOL      -0.4795
     21 O3        113.8056  133.7767   60.2123 O.co2       1 MOL      -0.4795
     22 H1        113.7075  131.4324   64.0373 H           1 MOL       0.0480
     23 H2        114.8176  129.3234   64.3057 H           1 MOL       0.0576
     24 H3        116.8593  128.8699   63.1168 H           1 MOL       0.0477
     25 H4        118.5586  129.5205   61.4760 H           1 MOL       0.0595
     26 H5        119.2956  130.9591   59.6921 H           1 MOL       0.0613
     27 H6        117.8962  132.7463   58.9326 H           1 MOL       0.0604
     28 H7        113.6897  133.4624   63.2793 H           1 MOL       0.2117
     29 H8        117.1099  134.2118   62.5713 H           1 MOL       0.0532
     30 H9        117.8805  136.4521   62.1019 H           1 MOL       0.0586
     31 H10       116.2906  138.2757   61.8848 H           1 MOL       0.0516
     32 H11       113.9155  137.8439   62.1587 H           1 MOL       0.0586
     33 H12       113.1267  135.6025   62.5740 H           1 MOL       0.0532
@<TRIPOS>BOND
     1     1     2  ar
     2     1     9   1
     3     1    12  ar
     4     2     3  ar
     5     3     4  ar
     6     4     5  ar
     7     5     6  ar
     8     5    12  ar
     9     6     7  ar
    10     7     8  ar
    11     8    11  ar
    12     9    13   1
    13    11    10   1
    14    10    19  ar
    15    10    20  ar
    16    10    21  ar
    17    11    12  ar
    18    13    14  ar
    19    13    18  ar
    20    14    15  ar
    21    15    16  ar
    22    16    17  ar
    23    17    18  ar
    24     2    22   1
    25     3    23   1
    26     4    24   1
    27     6    25   1
    28     7    26   1
    29     8    27   1
    30     9    28   1
    31    14    29   1
    32    15    30   1
    33    16    31   1
    34    17    32   1
    35    18    33   1
@<TRIPOS>SUBSTRUCTURE
     1  MOL      1

