@<TRIPOS>MOLECULE
3pxf_ligand_021
    33    35
SMALL
GAST_HUCK
****
This file was generated by PARSER (from files_GN.cpp)

@<TRIPOS>ATOM
      1 C1        115.1974  133.2124   62.4381 C.ar        1 MOL       0.0730
      2 C2        114.0096  133.0594   63.1998 C.ar        1 MOL      -0.0412
      3 C3        113.6470  131.8204   63.7420 C.ar        1 MOL      -0.0768
      4 C4        114.5097  130.7257   63.6138 C.ar        1 MOL      -0.0703
      5 C5        115.6942  130.8449   62.8597 C.ar        1 MOL      -0.0263
      6 C6        116.5508  129.7218   62.7939 C.ar        1 MOL      -0.0593
      7 C7        117.7143  129.7629   62.0210 C.ar        1 MOL      -0.0629
      8 C8        117.9975  130.9024   61.2551 C.ar        1 MOL      -0.0420
      9 N         115.6356  134.4616   62.1223 N.pl3       1 MOL      -0.2710
     10 S         117.4581  133.2014   59.9920 S.o2        1 MOL      -0.1624
     11 C9        117.1540  132.0389   61.2801 C.ar        1 MOL       0.0589
     12 C10       116.0260  132.0656   62.1773 C.ar        1 MOL       0.0329
     13 C11       115.0177  135.6888   62.1266 C.ar        1 MOL       0.0604
     14 C12       113.6555  135.8846   61.7893 C.ar        1 MOL      -0.0391
     15 C13       113.0895  137.1726   61.8134 C.ar        1 MOL      -0.0719
     16 C14       113.8849  138.2952   62.1124 C.ar        1 MOL      -0.0738
     17 C15       115.2555  138.1205   62.3826 C.ar        1 MOL      -0.0719
     18 C16       115.8168  136.8283   62.3843 C.ar        1 MOL      -0.0391
     19 O1        118.1838  134.6053   60.5906 O.co2       1 MOL      -0.4795
     20 O2        115.9883  133.6011   59.2618 O.co2       1 MOL      -0.4795
     21 O3        118.4956  132.5762   58.8106 O.co2       1 MOL      -0.4795
     22 H1        113.4333  133.8612   63.4600 H           1 MOL       0.0480
     23 H2        112.7945  131.7343   64.3092 H           1 MOL       0.0576
     24 H3        114.2678  129.8456   64.0796 H           1 MOL       0.0477
     25 H4        116.3338  128.8622   63.3117 H           1 MOL       0.0595
     26 H5        118.3283  128.9459   61.9803 H           1 MOL       0.0613
     27 H6        118.8211  130.8632   60.6496 H           1 MOL       0.0604
     28 H7        116.5851  134.5075   61.9417 H           1 MOL       0.2117
     29 H8        113.0746  135.0959   61.5012 H           1 MOL       0.0532
     30 H9        112.0946  137.2994   61.6019 H           1 MOL       0.0586
     31 H10       113.4772  139.2305   62.1172 H           1 MOL       0.0516
     32 H11       115.8446  138.9342   62.5786 H           1 MOL       0.0586
     33 H12       116.8189  136.7239   62.5837 H           1 MOL       0.0532
@<TRIPOS>BOND
     1     1     2  ar
     2     1     9   1
     3     1    12  ar
     4     2     3  ar
     5     3     4  ar
     6     4     5  ar
     7     5     6  ar
     8     5    12  ar
     9     6     7  ar
    10     7     8  ar
    11     8    11  ar
    12     9    13   1
    13    11    10   1
    14    10    19  ar
    15    10    20  ar
    16    10    21  ar
    17    11    12  ar
    18    13    14  ar
    19    13    18  ar
    20    14    15  ar
    21    15    16  ar
    22    16    17  ar
    23    17    18  ar
    24     2    22   1
    25     3    23   1
    26     4    24   1
    27     6    25   1
    28     7    26   1
    29     8    27   1
    30     9    28   1
    31    14    29   1
    32    15    30   1
    33    16    31   1
    34    17    32   1
    35    18    33   1
@<TRIPOS>SUBSTRUCTURE
     1  MOL      1

