@<TRIPOS>MOLECULE
3pxf_ligand_082
    33    35
SMALL
GAST_HUCK
****
This file was generated by PARSER (from files_GN.cpp)

@<TRIPOS>ATOM
      1 C1        115.0289  142.1522   69.0836 C.ar        1 MOL       0.0730
      2 C2        114.6584  142.1032   67.7102 C.ar        1 MOL      -0.0412
      3 C3        115.4178  141.4010   66.7766 C.ar        1 MOL      -0.0768
      4 C4        116.5600  140.7217   67.1896 C.ar        1 MOL      -0.0703
      5 C5        116.9835  140.7762   68.5427 C.ar        1 MOL      -0.0263
      6 C6        118.1440  140.0687   68.8953 C.ar        1 MOL      -0.0593
      7 C7        118.6227  140.1043   70.2111 C.ar        1 MOL      -0.0629
      8 C8        117.9677  140.8859   71.1682 C.ar        1 MOL      -0.0420
      9 N         114.1720  142.7043   69.9869 N.pl3       1 MOL      -0.2710
     10 S         116.3175  142.7572   72.1095 S.o2        1 MOL      -0.1624
     11 C9        116.8046  141.6197   70.8505 C.ar        1 MOL       0.0589
     12 C10       116.2398  141.5339   69.5197 C.ar        1 MOL       0.0329
     13 C11       113.5032  143.8977   69.9311 C.ar        1 MOL       0.0604
     14 C12       112.6510  144.2068   71.0092 C.ar        1 MOL      -0.0391
     15 C13       112.0567  145.4776   71.1184 C.ar        1 MOL      -0.0719
     16 C14       112.3167  146.4744   70.1505 C.ar        1 MOL      -0.0738
     17 C15       113.1858  146.1911   69.0805 C.ar        1 MOL      -0.0719
     18 C16       113.7773  144.9122   68.9785 C.ar        1 MOL      -0.0391
     19 O1        116.4011  144.3244   71.4962 O.co2       1 MOL      -0.4795
     20 O2        117.3434  142.6562   73.4545 O.co2       1 MOL      -0.4795
     21 O3        114.7102  142.4759   72.5970 O.co2       1 MOL      -0.4795
     22 H1        113.7728  142.5034   67.3846 H           1 MOL       0.0480
     23 H2        115.1093  141.3399   65.7948 H           1 MOL       0.0576
     24 H3        117.0927  140.1897   66.4945 H           1 MOL       0.0477
     25 H4        118.6677  139.5228   68.1962 H           1 MOL       0.0595
     26 H5        119.4699  139.5889   70.4549 H           1 MOL       0.0613
     27 H6        118.3775  140.9432   72.1003 H           1 MOL       0.0604
     28 H7        114.0682  142.2037   70.8072 H           1 MOL       0.2117
     29 H8        112.4650  143.4995   71.7267 H           1 MOL       0.0532
     30 H9        111.4535  145.6986   71.9143 H           1 MOL       0.0586
     31 H10       111.8882  147.3993   70.2363 H           1 MOL       0.0516
     32 H11       113.3863  146.9163   68.3906 H           1 MOL       0.0586
     33 H12       114.4575  144.7527   68.2156 H           1 MOL       0.0532
@<TRIPOS>BOND
     1     1     2  ar
     2     1     9   1
     3     1    12  ar
     4     2     3  ar
     5     3     4  ar
     6     4     5  ar
     7     5     6  ar
     8     5    12  ar
     9     6     7  ar
    10     7     8  ar
    11     8    11  ar
    12     9    13   1
    13    11    10   1
    14    10    19  ar
    15    10    20  ar
    16    10    21  ar
    17    11    12  ar
    18    13    14  ar
    19    13    18  ar
    20    14    15  ar
    21    15    16  ar
    22    16    17  ar
    23    17    18  ar
    24     2    22   1
    25     3    23   1
    26     4    24   1
    27     6    25   1
    28     7    26   1
    29     8    27   1
    30     9    28   1
    31    14    29   1
    32    15    30   1
    33    16    31   1
    34    17    32   1
    35    18    33   1
@<TRIPOS>SUBSTRUCTURE
     1  MOL      1

