@<TRIPOS>MOLECULE
3pxf_ligand_026
    33    35
SMALL
GAST_HUCK
****
This file was generated by PARSER (from files_GN.cpp)

@<TRIPOS>ATOM
      1 C1        116.0727  132.5587   62.7551 C.ar        1 MOL       0.0730
      2 C2        114.6731  132.4866   62.9298 C.ar        1 MOL      -0.0412
      3 C3        114.0737  131.2790   63.3056 C.ar        1 MOL      -0.0768
      4 C4        114.8625  130.1317   63.4813 C.ar        1 MOL      -0.0703
      5 C5        116.2370  130.1625   63.1675 C.ar        1 MOL      -0.0263
      6 C6        116.9656  128.9572   63.2657 C.ar        1 MOL      -0.0593
      7 C7        118.3142  128.9220   62.8978 C.ar        1 MOL      -0.0629
      8 C8        118.9258  130.0666   62.3821 C.ar        1 MOL      -0.0420
      9 N         116.5427  133.8263   62.7954 N.pl3       1 MOL      -0.2710
     10 S         119.0368  132.4918   61.2781 S.o2        1 MOL      -0.1624
     11 C9        118.2136  131.2835   62.2508 C.ar        1 MOL       0.0589
     12 C10       116.8631  131.3743   62.7300 C.ar        1 MOL       0.0329
     13 C11       117.4286  134.3546   63.6899 C.ar        1 MOL       0.0604
     14 C12       117.8427  135.6755   63.4374 C.ar        1 MOL      -0.0391
     15 C13       118.6666  136.3542   64.3507 C.ar        1 MOL      -0.0719
     16 C14       119.0637  135.7283   65.5473 C.ar        1 MOL      -0.0738
     17 C15       118.6698  134.4054   65.8052 C.ar        1 MOL      -0.0719
     18 C16       117.8461  133.7270   64.8864 C.ar        1 MOL      -0.0391
     19 O1        117.9536  133.4880   60.4423 O.co2       1 MOL      -0.4795
     20 O2        120.0217  131.7321   60.1327 O.co2       1 MOL      -0.4795
     21 O3        120.0365  133.4126   62.2822 O.co2       1 MOL      -0.4795
     22 H1        114.0811  133.3246   62.9142 H           1 MOL       0.0480
     23 H2        113.0702  131.2449   63.5256 H           1 MOL       0.0576
     24 H3        114.4237  129.2737   63.8145 H           1 MOL       0.0477
     25 H4        116.5217  128.1002   63.5835 H           1 MOL       0.0595
     26 H5        118.8331  128.0403   62.9540 H           1 MOL       0.0613
     27 H6        119.8965  129.9863   62.0730 H           1 MOL       0.0604
     28 H7        115.9620  134.5148   62.3750 H           1 MOL       0.2117
     29 H8        117.5423  136.1637   62.5948 H           1 MOL       0.0532
     30 H9        118.9346  137.3196   64.1707 H           1 MOL       0.0586
     31 H10       119.6186  136.2462   66.2373 H           1 MOL       0.0516
     32 H11       118.9373  133.9577   66.6793 H           1 MOL       0.0586
     33 H12       117.5369  132.7748   65.1215 H           1 MOL       0.0532
@<TRIPOS>BOND
     1     1     2  ar
     2     1     9   1
     3     1    12  ar
     4     2     3  ar
     5     3     4  ar
     6     4     5  ar
     7     5     6  ar
     8     5    12  ar
     9     6     7  ar
    10     7     8  ar
    11     8    11  ar
    12     9    13   1
    13    11    10   1
    14    10    19  ar
    15    10    20  ar
    16    10    21  ar
    17    11    12  ar
    18    13    14  ar
    19    13    18  ar
    20    14    15  ar
    21    15    16  ar
    22    16    17  ar
    23    17    18  ar
    24     2    22   1
    25     3    23   1
    26     4    24   1
    27     6    25   1
    28     7    26   1
    29     8    27   1
    30     9    28   1
    31    14    29   1
    32    15    30   1
    33    16    31   1
    34    17    32   1
    35    18    33   1
@<TRIPOS>SUBSTRUCTURE
     1  MOL      1

