@<TRIPOS>MOLECULE
3pxf_ligand_061
    33    35
SMALL
GAST_HUCK
****
This file was generated by PARSER (from files_GN.cpp)

@<TRIPOS>ATOM
      1 C1        122.7648  137.8457   68.3885 C.ar        1 MOL       0.0730
      2 C2        123.7725  138.2858   69.2835 C.ar        1 MOL      -0.0412
      3 C3        125.0311  138.7004   68.8384 C.ar        1 MOL      -0.0768
      4 C4        125.3025  138.7222   67.4765 C.ar        1 MOL      -0.0703
      5 C5        124.3263  138.2917   66.5548 C.ar        1 MOL      -0.0263
      6 C6        124.6495  138.4213   65.1837 C.ar        1 MOL      -0.0593
      7 C7        123.7304  138.0485   64.1971 C.ar        1 MOL      -0.0629
      8 C8        122.5143  137.4852   64.5748 C.ar        1 MOL      -0.0420
      9 N         121.4964  137.6538   68.8507 N.pl3       1 MOL      -0.2710
     10 S         120.6823  136.3896   66.1538 S.o2        1 MOL      -0.1624
     11 C9        122.1728  137.3096   65.9369 C.ar        1 MOL       0.0589
     12 C10       123.0508  137.7863   66.9808 C.ar        1 MOL       0.0329
     13 C11       120.7706  138.3576   69.7692 C.ar        1 MOL       0.0604
     14 C12       119.7553  139.2034   69.2549 C.ar        1 MOL      -0.0391
     15 C13       118.9583  139.9832   70.1158 C.ar        1 MOL      -0.0719
     16 C14       119.1790  139.9358   71.5047 C.ar        1 MOL      -0.0738
     17 C15       120.1639  139.0734   72.0356 C.ar        1 MOL      -0.0719
     18 C16       120.9339  138.2557   71.1757 C.ar        1 MOL      -0.0391
     19 O1        120.9496  135.0933   67.2192 O.co2       1 MOL      -0.4795
     20 O2        120.0906  135.7636   64.6895 O.co2       1 MOL      -0.4795
     21 O3        119.4710  137.3960   66.7981 O.co2       1 MOL      -0.4795
     22 H1        123.6004  138.3627   70.2908 H           1 MOL       0.0480
     23 H2        125.7396  139.0189   69.5066 H           1 MOL       0.0576
     24 H3        126.2151  139.0770   67.1629 H           1 MOL       0.0477
     25 H4        125.5658  138.7947   64.8772 H           1 MOL       0.0595
     26 H5        123.9675  138.1635   63.2113 H           1 MOL       0.0613
     27 H6        121.8986  137.1910   63.8272 H           1 MOL       0.0604
     28 H7        120.9424  137.1041   68.3017 H           1 MOL       0.2117
     29 H8        119.5935  139.2432   68.2455 H           1 MOL       0.0532
     30 H9        118.2486  140.5914   69.7345 H           1 MOL       0.0586
     31 H10       118.6151  140.5119   72.1309 H           1 MOL       0.0516
     32 H11       120.2981  139.0128   73.0493 H           1 MOL       0.0586
     33 H12       121.6018  137.5966   71.5740 H           1 MOL       0.0532
@<TRIPOS>BOND
     1     1     2  ar
     2     1     9   1
     3     1    12  ar
     4     2     3  ar
     5     3     4  ar
     6     4     5  ar
     7     5     6  ar
     8     5    12  ar
     9     6     7  ar
    10     7     8  ar
    11     8    11  ar
    12     9    13   1
    13    11    10   1
    14    10    19  ar
    15    10    20  ar
    16    10    21  ar
    17    11    12  ar
    18    13    14  ar
    19    13    18  ar
    20    14    15  ar
    21    15    16  ar
    22    16    17  ar
    23    17    18  ar
    24     2    22   1
    25     3    23   1
    26     4    24   1
    27     6    25   1
    28     7    26   1
    29     8    27   1
    30     9    28   1
    31    14    29   1
    32    15    30   1
    33    16    31   1
    34    17    32   1
    35    18    33   1
@<TRIPOS>SUBSTRUCTURE
     1  MOL      1

