@<TRIPOS>MOLECULE
3pxf_ligand_024
    33    35
SMALL
GAST_HUCK
****
This file was generated by PARSER (from files_GN.cpp)

@<TRIPOS>ATOM
      1 C1        112.0290  141.3821   63.7647 C.ar        1 MOL       0.0730
      2 C2        110.8250  142.0453   64.0617 C.ar        1 MOL      -0.0412
      3 C3        110.7532  142.9254   65.1503 C.ar        1 MOL      -0.0768
      4 C4        111.8898  143.1485   65.9332 C.ar        1 MOL      -0.0703
      5 C5        113.0863  142.4341   65.6919 C.ar        1 MOL      -0.0263
      6 C6        114.1927  142.6407   66.5472 C.ar        1 MOL      -0.0593
      7 C7        115.3678  141.9087   66.3827 C.ar        1 MOL      -0.0629
      8 C8        115.4381  140.9136   65.3950 C.ar        1 MOL      -0.0420
      9 N         112.1195  140.8039   62.5373 N.pl3       1 MOL      -0.2710
     10 S         114.4585  139.1855   63.6078 S.o2        1 MOL      -0.1624
     11 C9        114.3550  140.6701   64.5281 C.ar        1 MOL       0.0589
     12 C10       113.1741  141.4892   64.6111 C.ar        1 MOL       0.0329
     13 C11       111.5530  139.6433   62.1174 C.ar        1 MOL       0.0604
     14 C12       111.7586  139.2655   60.7991 C.ar        1 MOL      -0.0391
     15 C13       111.5077  137.9484   60.3663 C.ar        1 MOL      -0.0719
     16 C14       111.0555  136.9739   61.2929 C.ar        1 MOL      -0.0738
     17 C15       110.8201  137.3501   62.6124 C.ar        1 MOL      -0.0719
     18 C16       111.0530  138.6671   63.0529 C.ar        1 MOL      -0.0391
     19 O1        115.9279  138.3705   63.8455 O.co2       1 MOL      -0.4795
     20 O2        114.3107  139.4554   61.9305 O.co2       1 MOL      -0.4795
     21 O3        113.2131  138.1494   64.1038 O.co2       1 MOL      -0.4795
     22 H1        110.0098  141.9604   63.4395 H           1 MOL       0.0480
     23 H2        109.8850  143.4338   65.3405 H           1 MOL       0.0576
     24 H3        111.8249  143.8204   66.6998 H           1 MOL       0.0477
     25 H4        114.1336  143.3128   67.3087 H           1 MOL       0.0595
     26 H5        116.1572  142.0513   67.0189 H           1 MOL       0.0613
     27 H6        116.2825  140.3407   65.3764 H           1 MOL       0.0604
     28 H7        112.8577  141.1259   61.9932 H           1 MOL       0.2117
     29 H8        112.1467  139.9359   60.1214 H           1 MOL       0.0532
     30 H9        111.7202  137.6734   59.4124 H           1 MOL       0.0586
     31 H10       110.9295  136.0077   60.9924 H           1 MOL       0.0516
     32 H11       110.5491  136.6376   63.3077 H           1 MOL       0.0586
     33 H12       110.9689  138.8828   64.0339 H           1 MOL       0.0532
@<TRIPOS>BOND
     1     1     2  ar
     2     1     9   1
     3     1    12  ar
     4     2     3  ar
     5     3     4  ar
     6     4     5  ar
     7     5     6  ar
     8     5    12  ar
     9     6     7  ar
    10     7     8  ar
    11     8    11  ar
    12     9    13   1
    13    11    10   1
    14    10    19  ar
    15    10    20  ar
    16    10    21  ar
    17    11    12  ar
    18    13    14  ar
    19    13    18  ar
    20    14    15  ar
    21    15    16  ar
    22    16    17  ar
    23    17    18  ar
    24     2    22   1
    25     3    23   1
    26     4    24   1
    27     6    25   1
    28     7    26   1
    29     8    27   1
    30     9    28   1
    31    14    29   1
    32    15    30   1
    33    16    31   1
    34    17    32   1
    35    18    33   1
@<TRIPOS>SUBSTRUCTURE
     1  MOL      1

