@<TRIPOS>MOLECULE
3pxf_ligand_064
    33    35
SMALL
GAST_HUCK
****
This file was generated by PARSER (from files_GN.cpp)

@<TRIPOS>ATOM
      1 C1        120.9764  131.5716   64.1608 C.ar        1 MOL       0.0730
      2 C2        120.2319  130.5970   63.4452 C.ar        1 MOL      -0.0412
      3 C3        120.7445  129.3138   63.2123 C.ar        1 MOL      -0.0768
      4 C4        122.0019  128.9738   63.7155 C.ar        1 MOL      -0.0703
      5 C5        122.7909  129.9351   64.3807 C.ar        1 MOL      -0.0263
      6 C6        124.0602  129.5418   64.8469 C.ar        1 MOL      -0.0593
      7 C7        124.9031  130.4672   65.4703 C.ar        1 MOL      -0.0629
      8 C8        124.5069  131.8072   65.5761 C.ar        1 MOL      -0.0420
      9 N         120.3518  132.7100   64.5613 N.pl3       1 MOL      -0.2710
     10 S         123.0735  133.9936   65.0087 S.o2        1 MOL      -0.1624
     11 C9        123.2494  132.2415   65.0963 C.ar        1 MOL       0.0589
     12 C10       122.3230  131.2811   64.5608 C.ar        1 MOL       0.0329
     13 C11       119.2551  133.3222   64.0342 C.ar        1 MOL       0.0604
     14 C12       119.2058  133.6689   62.6643 C.ar        1 MOL      -0.0391
     15 C13       118.1448  134.4475   62.1678 C.ar        1 MOL      -0.0719
     16 C14       117.1333  134.8971   63.0373 C.ar        1 MOL      -0.0738
     17 C15       117.1534  134.5170   64.3951 C.ar        1 MOL      -0.0719
     18 C16       118.2175  133.7453   64.8920 C.ar        1 MOL      -0.0391
     19 O1        122.0968  134.5273   66.2824 O.co2       1 MOL      -0.4795
     20 O2        122.3770  134.4448   63.5333 O.co2       1 MOL      -0.4795
     21 O3        124.5677  134.7802   65.1378 O.co2       1 MOL      -0.4795
     22 H1        119.2669  130.7807   63.1539 H           1 MOL       0.0480
     23 H2        120.1692  128.6175   62.7306 H           1 MOL       0.0576
     24 H3        122.3422  128.0199   63.5759 H           1 MOL       0.0477
     25 H4        124.3934  128.5810   64.7244 H           1 MOL       0.0595
     26 H5        125.8209  130.1771   65.8099 H           1 MOL       0.0613
     27 H6        125.1757  132.4653   65.9758 H           1 MOL       0.0604
     28 H7        120.7391  133.1615   65.3179 H           1 MOL       0.2117
     29 H8        119.9596  133.3822   62.0358 H           1 MOL       0.0532
     30 H9        118.1213  134.7084   61.1801 H           1 MOL       0.0586
     31 H10       116.3907  135.5010   62.6858 H           1 MOL       0.0516
     32 H11       116.4043  134.8209   65.0192 H           1 MOL       0.0586
     33 H12       118.2343  133.4900   65.8827 H           1 MOL       0.0532
@<TRIPOS>BOND
     1     1     2  ar
     2     1     9   1
     3     1    12  ar
     4     2     3  ar
     5     3     4  ar
     6     4     5  ar
     7     5     6  ar
     8     5    12  ar
     9     6     7  ar
    10     7     8  ar
    11     8    11  ar
    12     9    13   1
    13    11    10   1
    14    10    19  ar
    15    10    20  ar
    16    10    21  ar
    17    11    12  ar
    18    13    14  ar
    19    13    18  ar
    20    14    15  ar
    21    15    16  ar
    22    16    17  ar
    23    17    18  ar
    24     2    22   1
    25     3    23   1
    26     4    24   1
    27     6    25   1
    28     7    26   1
    29     8    27   1
    30     9    28   1
    31    14    29   1
    32    15    30   1
    33    16    31   1
    34    17    32   1
    35    18    33   1
@<TRIPOS>SUBSTRUCTURE
     1  MOL      1

