@<TRIPOS>MOLECULE
3pxf_ligand_070
    33    35
SMALL
GAST_HUCK
****
This file was generated by PARSER (from files_GN.cpp)

@<TRIPOS>ATOM
      1 C1        127.5832  135.5271   63.7485 C.ar        1 MOL       0.0730
      2 C2        127.2928  136.8933   63.4986 C.ar        1 MOL      -0.0412
      3 C3        126.0849  137.4689   63.9057 C.ar        1 MOL      -0.0768
      4 C4        125.1195  136.6778   64.5333 C.ar        1 MOL      -0.0703
      5 C5        125.3793  135.3178   64.8090 C.ar        1 MOL      -0.0263
      6 C6        124.3502  134.5604   65.4099 C.ar        1 MOL      -0.0593
      7 C7        124.5531  133.2130   65.7191 C.ar        1 MOL      -0.0629
      8 C8        125.8062  132.6334   65.4962 C.ar        1 MOL      -0.0420
      9 N         128.6638  134.9584   63.1458 N.pl3       1 MOL      -0.2710
     10 S         128.4291  132.5558   65.0089 S.o2        1 MOL      -0.1624
     11 C9        126.8739  133.3741   64.9346 C.ar        1 MOL       0.0589
     12 C10       126.6468  134.7232   64.4854 C.ar        1 MOL       0.0329
     13 C11       129.9768  135.3346   63.0745 C.ar        1 MOL       0.0604
     14 C12       130.6483  135.1466   61.8449 C.ar        1 MOL      -0.0391
     15 C13       132.0194  135.4422   61.7223 C.ar        1 MOL      -0.0719
     16 C14       132.7397  135.9106   62.8349 C.ar        1 MOL      -0.0738
     17 C15       132.0912  136.0716   64.0735 C.ar        1 MOL      -0.0719
     18 C16       130.7217  135.7704   64.1961 C.ar        1 MOL      -0.0391
     19 O1        128.3334  131.1155   65.8902 O.co2       1 MOL      -0.4795
     20 O2        129.5805  133.5444   65.7556 O.co2       1 MOL      -0.4795
     21 O3        128.9377  132.1742   63.4424 O.co2       1 MOL      -0.4795
     22 H1        127.9209  137.4758   62.9417 H           1 MOL       0.0480
     23 H2        125.8851  138.4500   63.6941 H           1 MOL       0.0576
     24 H3        124.2228  137.1066   64.7809 H           1 MOL       0.0477
     25 H4        123.4378  134.9770   65.6181 H           1 MOL       0.0595
     26 H5        123.8001  132.6649   66.1442 H           1 MOL       0.0613
     27 H6        125.9281  131.6584   65.7815 H           1 MOL       0.0604
     28 H7        128.4639  134.1631   62.6385 H           1 MOL       0.2117
     29 H8        130.1403  134.7970   61.0277 H           1 MOL       0.0532
     30 H9        132.4926  135.3108   60.8250 H           1 MOL       0.0586
     31 H10       133.7361  136.1231   62.7472 H           1 MOL       0.0516
     32 H11       132.6195  136.3903   64.8887 H           1 MOL       0.0586
     33 H12       130.2783  135.8484   65.1143 H           1 MOL       0.0532
@<TRIPOS>BOND
     1     1     2  ar
     2     1     9   1
     3     1    12  ar
     4     2     3  ar
     5     3     4  ar
     6     4     5  ar
     7     5     6  ar
     8     5    12  ar
     9     6     7  ar
    10     7     8  ar
    11     8    11  ar
    12     9    13   1
    13    11    10   1
    14    10    19  ar
    15    10    20  ar
    16    10    21  ar
    17    11    12  ar
    18    13    14  ar
    19    13    18  ar
    20    14    15  ar
    21    15    16  ar
    22    16    17  ar
    23    17    18  ar
    24     2    22   1
    25     3    23   1
    26     4    24   1
    27     6    25   1
    28     7    26   1
    29     8    27   1
    30     9    28   1
    31    14    29   1
    32    15    30   1
    33    16    31   1
    34    17    32   1
    35    18    33   1
@<TRIPOS>SUBSTRUCTURE
     1  MOL      1

