@<TRIPOS>MOLECULE
3pxf_ligand_046
    33    35
SMALL
GAST_HUCK
****
This file was generated by PARSER (from files_GN.cpp)

@<TRIPOS>ATOM
      1 C1        125.0241  132.1904   66.5274 C.ar        1 MOL       0.0730
      2 C2        125.0264  132.8442   67.7778 C.ar        1 MOL      -0.0412
      3 C3        126.2215  133.0577   68.4771 C.ar        1 MOL      -0.0768
      4 C4        127.4302  132.6170   67.9293 C.ar        1 MOL      -0.0703
      5 C5        127.4392  131.8634   66.7379 C.ar        1 MOL      -0.0263
      6 C6        128.6820  131.4210   66.2377 C.ar        1 MOL      -0.0593
      7 C7        128.7385  130.5928   65.1113 C.ar        1 MOL      -0.0629
      8 C8        127.5464  130.1332   64.5382 C.ar        1 MOL      -0.0420
      9 N         123.8603  132.3854   65.8430 N.pl3       1 MOL      -0.2710
     10 S         124.9659  129.5107   64.5071 S.o2        1 MOL      -0.1624
     11 C9        126.2831  130.5417   65.0296 C.ar        1 MOL       0.0589
     12 C10       126.2149  131.5358   66.0647 C.ar        1 MOL       0.0329
     13 C11       123.6046  132.2584   64.5137 C.ar        1 MOL       0.0604
     14 C12       124.4423  132.8011   63.5120 C.ar        1 MOL      -0.0391
     15 C13       124.1268  132.6216   62.1534 C.ar        1 MOL      -0.0719
     16 C14       122.9720  131.9070   61.7846 C.ar        1 MOL      -0.0738
     17 C15       122.0936  131.4304   62.7755 C.ar        1 MOL      -0.0719
     18 C16       122.3976  131.6307   64.1360 C.ar        1 MOL      -0.0391
     19 O1        124.5391  129.8693   62.9139 O.co2       1 MOL      -0.4795
     20 O2        123.6011  129.6116   65.4939 O.co2       1 MOL      -0.4795
     21 O3        125.5098  127.9079   64.5342 O.co2       1 MOL      -0.4795
     22 H1        124.1695  133.2755   68.1489 H           1 MOL       0.0480
     23 H2        126.2141  133.5784   69.3587 H           1 MOL       0.0576
     24 H3        128.2988  132.8295   68.4274 H           1 MOL       0.0477
     25 H4        129.5623  131.6826   66.6951 H           1 MOL       0.0595
     26 H5        129.6415  130.2643   64.7579 H           1 MOL       0.0613
     27 H6        127.6232  129.4410   63.7845 H           1 MOL       0.0604
     28 H7        123.1467  132.8244   66.3439 H           1 MOL       0.2117
     29 H8        125.2772  133.3331   63.7652 H           1 MOL       0.0532
     30 H9        124.7375  133.0063   61.4318 H           1 MOL       0.0586
     31 H10       122.7530  131.7639   60.8004 H           1 MOL       0.0516
     32 H11       121.2441  130.9223   62.5126 H           1 MOL       0.0586
     33 H12       121.7480  131.2829   64.8508 H           1 MOL       0.0532
@<TRIPOS>BOND
     1     1     2  ar
     2     1     9   1
     3     1    12  ar
     4     2     3  ar
     5     3     4  ar
     6     4     5  ar
     7     5     6  ar
     8     5    12  ar
     9     6     7  ar
    10     7     8  ar
    11     8    11  ar
    12     9    13   1
    13    11    10   1
    14    10    19  ar
    15    10    20  ar
    16    10    21  ar
    17    11    12  ar
    18    13    14  ar
    19    13    18  ar
    20    14    15  ar
    21    15    16  ar
    22    16    17  ar
    23    17    18  ar
    24     2    22   1
    25     3    23   1
    26     4    24   1
    27     6    25   1
    28     7    26   1
    29     8    27   1
    30     9    28   1
    31    14    29   1
    32    15    30   1
    33    16    31   1
    34    17    32   1
    35    18    33   1
@<TRIPOS>SUBSTRUCTURE
     1  MOL      1

