@<TRIPOS>MOLECULE
3pxf_ligand_063
    33    35
SMALL
GAST_HUCK
****
This file was generated by PARSER (from files_GN.cpp)

@<TRIPOS>ATOM
      1 C1        121.8866  132.6810   64.6292 C.ar        1 MOL       0.0730
      2 C2        121.1907  133.8111   65.1262 C.ar        1 MOL      -0.0412
      3 C3        119.7971  133.8759   65.1168 C.ar        1 MOL      -0.0768
      4 C4        119.0615  132.7997   64.6223 C.ar        1 MOL      -0.0703
      5 C5        119.7237  131.6743   64.0815 C.ar        1 MOL      -0.0263
      6 C6        118.9103  130.6113   63.6225 C.ar        1 MOL      -0.0593
      7 C7        119.4844  129.4595   63.0760 C.ar        1 MOL      -0.0629
      8 C8        120.8681  129.3650   62.9749 C.ar        1 MOL      -0.0420
      9 N         123.2374  132.6136   64.8390 N.pl3       1 MOL      -0.2710
     10 S         123.4213  130.1121   63.0708 S.o2        1 MOL      -0.1624
     11 C9        121.7199  130.4078   63.4221 C.ar        1 MOL       0.0589
     12 C10       121.1582  131.5932   64.0251 C.ar        1 MOL       0.0329
     13 C11       123.9537  133.0274   65.9130 C.ar        1 MOL       0.0604
     14 C12       124.5076  134.3252   66.0042 C.ar        1 MOL      -0.0391
     15 C13       125.2630  134.6955   67.1375 C.ar        1 MOL      -0.0719
     16 C14       125.4884  133.7640   68.1711 C.ar        1 MOL      -0.0738
     17 C15       124.9836  132.4527   68.0581 C.ar        1 MOL      -0.0719
     18 C16       124.2288  132.0817   66.9251 C.ar        1 MOL      -0.0391
     19 O1        123.7214  128.5757   62.4130 O.co2       1 MOL      -0.4795
     20 O2        124.3381  130.1998   64.5006 O.co2       1 MOL      -0.4795
     21 O3        123.9487  131.2850   61.9625 O.co2       1 MOL      -0.4795
     22 H1        121.6848  134.6014   65.5301 H           1 MOL       0.0480
     23 H2        119.3147  134.6825   65.5023 H           1 MOL       0.0576
     24 H3        118.0398  132.8430   64.6615 H           1 MOL       0.0477
     25 H4        117.8820  130.6557   63.6896 H           1 MOL       0.0595
     26 H5        118.8844  128.6957   62.7483 H           1 MOL       0.0613
     27 H6        121.2395  128.5128   62.5638 H           1 MOL       0.0604
     28 H7        123.7001  131.9686   64.3216 H           1 MOL       0.2117
     29 H8        124.3633  135.0003   65.2493 H           1 MOL       0.0532
     30 H9        125.6440  135.6320   67.2046 H           1 MOL       0.0586
     31 H10       126.0167  134.0339   69.0004 H           1 MOL       0.0516
     32 H11       125.1425  131.7693   68.8077 H           1 MOL       0.0586
     33 H12       123.8814  131.1254   66.8489 H           1 MOL       0.0532
@<TRIPOS>BOND
     1     1     2  ar
     2     1     9   1
     3     1    12  ar
     4     2     3  ar
     5     3     4  ar
     6     4     5  ar
     7     5     6  ar
     8     5    12  ar
     9     6     7  ar
    10     7     8  ar
    11     8    11  ar
    12     9    13   1
    13    11    10   1
    14    10    19  ar
    15    10    20  ar
    16    10    21  ar
    17    11    12  ar
    18    13    14  ar
    19    13    18  ar
    20    14    15  ar
    21    15    16  ar
    22    16    17  ar
    23    17    18  ar
    24     2    22   1
    25     3    23   1
    26     4    24   1
    27     6    25   1
    28     7    26   1
    29     8    27   1
    30     9    28   1
    31    14    29   1
    32    15    30   1
    33    16    31   1
    34    17    32   1
    35    18    33   1
@<TRIPOS>SUBSTRUCTURE
     1  MOL      1

