@<TRIPOS>MOLECULE
3pxf_ligand_041
    33    35
SMALL
GAST_HUCK
****
This file was generated by PARSER (from files_GN.cpp)

@<TRIPOS>ATOM
      1 C1        120.8772  132.2684   64.4326 C.ar        1 MOL       0.0730
      2 C2        119.5221  131.9140   64.2008 C.ar        1 MOL      -0.0412
      3 C3        119.1716  130.6839   63.6375 C.ar        1 MOL      -0.0768
      4 C4        120.1673  129.7576   63.3258 C.ar        1 MOL      -0.0703
      5 C5        121.5243  130.0675   63.5589 C.ar        1 MOL      -0.0263
      6 C6        122.4707  129.0654   63.2574 C.ar        1 MOL      -0.0593
      7 C7        123.8307  129.2954   63.4592 C.ar        1 MOL      -0.0629
      8 C8        124.2563  130.5456   63.9147 C.ar        1 MOL      -0.0420
      9 N         121.1350  133.4273   65.1013 N.pl3       1 MOL      -0.2710
     10 S         124.1357  133.1281   64.5538 S.o2        1 MOL      -0.1624
     11 C9        123.3457  131.5955   64.1896 C.ar        1 MOL       0.0589
     12 C10       121.9275  131.3477   64.0821 C.ar        1 MOL       0.0329
     13 C11       120.3600  134.5246   65.3626 C.ar        1 MOL       0.0604
     14 C12       120.5740  135.2169   66.5749 C.ar        1 MOL      -0.0391
     15 C13       119.8632  136.3973   66.8626 C.ar        1 MOL      -0.0719
     16 C14       118.9408  136.9059   65.9319 C.ar        1 MOL      -0.0738
     17 C15       118.7433  136.2452   64.7061 C.ar        1 MOL      -0.0719
     18 C16       119.4586  135.0681   64.4175 C.ar        1 MOL      -0.0391
     19 O1        123.9653  133.4847   66.1977 O.co2       1 MOL      -0.4795
     20 O2        123.4447  134.3575   63.6219 O.co2       1 MOL      -0.4795
     21 O3        125.7950  133.0918   64.2255 O.co2       1 MOL      -0.4795
     22 H1        118.7556  132.5235   64.4955 H           1 MOL       0.0480
     23 H2        118.1872  130.4484   63.4915 H           1 MOL       0.0576
     24 H3        119.8863  128.8490   62.9446 H           1 MOL       0.0477
     25 H4        122.1839  128.1525   62.8913 H           1 MOL       0.0595
     26 H5        124.5133  128.5630   63.2522 H           1 MOL       0.0613
     27 H6        125.2646  130.6696   64.0283 H           1 MOL       0.0604
     28 H7        122.0008  133.4668   65.5173 H           1 MOL       0.2117
     29 H8        121.2473  134.8623   67.2597 H           1 MOL       0.0532
     30 H9        120.0253  136.8919   67.7434 H           1 MOL       0.0586
     31 H10       118.4294  137.7664   66.1391 H           1 MOL       0.0516
     32 H11       118.0880  136.6269   64.0194 H           1 MOL       0.0586
     33 H12       119.3346  134.6204   63.5052 H           1 MOL       0.0532
@<TRIPOS>BOND
     1     1     2  ar
     2     1     9   1
     3     1    12  ar
     4     2     3  ar
     5     3     4  ar
     6     4     5  ar
     7     5     6  ar
     8     5    12  ar
     9     6     7  ar
    10     7     8  ar
    11     8    11  ar
    12     9    13   1
    13    11    10   1
    14    10    19  ar
    15    10    20  ar
    16    10    21  ar
    17    11    12  ar
    18    13    14  ar
    19    13    18  ar
    20    14    15  ar
    21    15    16  ar
    22    16    17  ar
    23    17    18  ar
    24     2    22   1
    25     3    23   1
    26     4    24   1
    27     6    25   1
    28     7    26   1
    29     8    27   1
    30     9    28   1
    31    14    29   1
    32    15    30   1
    33    16    31   1
    34    17    32   1
    35    18    33   1
@<TRIPOS>SUBSTRUCTURE
     1  MOL      1

