@<TRIPOS>MOLECULE
3pxf_ligand_017
    33    35
SMALL
GAST_HUCK
****
This file was generated by PARSER (from files_GN.cpp)

@<TRIPOS>ATOM
      1 C1        113.6597  141.5637   65.3982 C.ar        1 MOL       0.0730
      2 C2        114.3171  140.8020   64.3923 C.ar        1 MOL      -0.0412
      3 C3        113.6769  140.5105   63.1872 C.ar        1 MOL      -0.0768
      4 C4        112.3577  140.9261   62.9726 C.ar        1 MOL      -0.0703
      5 C5        111.6723  141.6787   63.9605 C.ar        1 MOL      -0.0263
      6 C6        110.3348  142.0427   63.7093 C.ar        1 MOL      -0.0593
      7 C7        109.6420  142.8649   64.6053 C.ar        1 MOL      -0.0629
      8 C8        110.3152  143.3880   65.7121 C.ar        1 MOL      -0.0420
      9 N         114.2190  141.6326   66.6324 N.pl3       1 MOL      -0.2710
     10 S         112.4369  144.1145   67.1783 S.o2        1 MOL      -0.1624
     11 C9        111.6613  143.0314   66.0037 C.ar        1 MOL       0.0589
     12 C10       112.3476  142.0798   65.1597 C.ar        1 MOL       0.0329
     13 C11       115.5393  141.8316   66.9107 C.ar        1 MOL       0.0604
     14 C12       116.2336  140.9832   67.8061 C.ar        1 MOL      -0.0391
     15 C13       117.5847  141.2519   68.1531 C.ar        1 MOL      -0.0719
     16 C14       118.2297  142.4112   67.6422 C.ar        1 MOL      -0.0738
     17 C15       117.5187  143.3018   66.8223 C.ar        1 MOL      -0.0719
     18 C16       116.1795  143.0183   66.4591 C.ar        1 MOL      -0.0391
     19 O1        113.2293  143.1646   68.3505 O.co2       1 MOL      -0.4795
     20 O2        111.2982  145.1041   67.9782 O.co2       1 MOL      -0.4795
     21 O3        113.5428  145.1023   66.3403 O.co2       1 MOL      -0.4795
     22 H1        115.2521  140.4196   64.5581 H           1 MOL       0.0480
     23 H2        114.1584  139.9658   62.4733 H           1 MOL       0.0576
     24 H3        111.8982  140.6634   62.0942 H           1 MOL       0.0477
     25 H4        109.8575  141.6998   62.8531 H           1 MOL       0.0595
     26 H5        108.6658  143.1199   64.3944 H           1 MOL       0.0613
     27 H6        109.7746  144.0441   66.2728 H           1 MOL       0.0604
     28 H7        113.6423  141.5660   67.3918 H           1 MOL       0.2117
     29 H8        115.7911  140.1124   68.1517 H           1 MOL       0.0532
     30 H9        118.0995  140.6048   68.7530 H           1 MOL       0.0586
     31 H10       119.1951  142.6019   67.8874 H           1 MOL       0.0516
     32 H11       117.9642  144.1575   66.4689 H           1 MOL       0.0586
     33 H12       115.6772  143.6780   65.8494 H           1 MOL       0.0532
@<TRIPOS>BOND
     1     1     2  ar
     2     1     9   1
     3     1    12  ar
     4     2     3  ar
     5     3     4  ar
     6     4     5  ar
     7     5     6  ar
     8     5    12  ar
     9     6     7  ar
    10     7     8  ar
    11     8    11  ar
    12     9    13   1
    13    11    10   1
    14    10    19  ar
    15    10    20  ar
    16    10    21  ar
    17    11    12  ar
    18    13    14  ar
    19    13    18  ar
    20    14    15  ar
    21    15    16  ar
    22    16    17  ar
    23    17    18  ar
    24     2    22   1
    25     3    23   1
    26     4    24   1
    27     6    25   1
    28     7    26   1
    29     8    27   1
    30     9    28   1
    31    14    29   1
    32    15    30   1
    33    16    31   1
    34    17    32   1
    35    18    33   1
@<TRIPOS>SUBSTRUCTURE
     1  MOL      1

