@<TRIPOS>MOLECULE
3pxf_ligand_020
    33    35
SMALL
GAST_HUCK
****
This file was generated by PARSER (from files_GN.cpp)

@<TRIPOS>ATOM
      1 C1        116.4288  134.8815   60.7571 C.ar        1 MOL       0.0730
      2 C2        117.4577  135.8418   60.8631 C.ar        1 MOL      -0.0412
      3 C3        117.3109  136.9620   61.6871 C.ar        1 MOL      -0.0768
      4 C4        116.1352  137.1487   62.4123 C.ar        1 MOL      -0.0703
      5 C5        115.0615  136.2451   62.2596 C.ar        1 MOL      -0.0263
      6 C6        113.8767  136.5099   62.9762 C.ar        1 MOL      -0.0593
      7 C7        112.7701  135.6664   62.8403 C.ar        1 MOL      -0.0629
      8 C8        112.8126  134.5889   61.9429 C.ar        1 MOL      -0.0420
      9 N         116.7277  133.7602   60.0574 N.pl3       1 MOL      -0.2710
     10 S         113.7269  133.1514   59.8909 S.o2        1 MOL      -0.1624
     11 C9        113.9669  134.3190   61.1777 C.ar        1 MOL       0.0589
     12 C10       115.1600  135.1070   61.3809 C.ar        1 MOL       0.0329
     13 C11       117.2276  132.5966   60.5710 C.ar        1 MOL       0.0604
     14 C12       118.1419  131.8398   59.8044 C.ar        1 MOL      -0.0391
     15 C13       118.6669  130.6231   60.2814 C.ar        1 MOL      -0.0719
     16 C14       118.2547  130.1426   61.5397 C.ar        1 MOL      -0.0738
     17 C15       117.3320  130.8647   62.3136 C.ar        1 MOL      -0.0719
     18 C16       116.8310  132.0943   61.8324 C.ar        1 MOL      -0.0391
     19 O1        112.1580  132.5174   59.9031 O.co2       1 MOL      -0.4795
     20 O2        114.7732  131.8298   60.0287 O.co2       1 MOL      -0.4795
     21 O3        113.9887  133.9049   58.3969 O.co2       1 MOL      -0.4795
     22 H1        118.3572  135.7100   60.3890 H           1 MOL       0.0480
     23 H2        118.0828  137.6309   61.7817 H           1 MOL       0.0576
     24 H3        116.0459  137.9731   63.0165 H           1 MOL       0.0477
     25 H4        113.8136  137.3013   63.6105 H           1 MOL       0.0595
     26 H5        111.9157  135.8586   63.3726 H           1 MOL       0.0613
     27 H6        111.9706  134.0265   61.8452 H           1 MOL       0.0604
     28 H7        116.9394  133.9238   59.0982 H           1 MOL       0.2117
     29 H8        118.4360  132.1685   58.8832 H           1 MOL       0.0532
     30 H9        119.3430  130.0903   59.7176 H           1 MOL       0.0586
     31 H10       118.6307  129.2529   61.8854 H           1 MOL       0.0516
     32 H11       117.0256  130.4935   63.2175 H           1 MOL       0.0586
     33 H12       116.1431  132.5973   62.4008 H           1 MOL       0.0532
@<TRIPOS>BOND
     1     1     2  ar
     2     1     9   1
     3     1    12  ar
     4     2     3  ar
     5     3     4  ar
     6     4     5  ar
     7     5     6  ar
     8     5    12  ar
     9     6     7  ar
    10     7     8  ar
    11     8    11  ar
    12     9    13   1
    13    11    10   1
    14    10    19  ar
    15    10    20  ar
    16    10    21  ar
    17    11    12  ar
    18    13    14  ar
    19    13    18  ar
    20    14    15  ar
    21    15    16  ar
    22    16    17  ar
    23    17    18  ar
    24     2    22   1
    25     3    23   1
    26     4    24   1
    27     6    25   1
    28     7    26   1
    29     8    27   1
    30     9    28   1
    31    14    29   1
    32    15    30   1
    33    16    31   1
    34    17    32   1
    35    18    33   1
@<TRIPOS>SUBSTRUCTURE
     1  MOL      1

