@<TRIPOS>MOLECULE
3pxf_ligand_005
    33    35
SMALL
GAST_HUCK
****
This file was generated by PARSER (from files_GN.cpp)

@<TRIPOS>ATOM
      1 C1        114.5363  135.1794   61.7524 C.ar        1 MOL       0.0730
      2 C2        115.9292  135.4206   61.8473 C.ar        1 MOL      -0.0412
      3 C3        116.4325  136.4713   62.6171 C.ar        1 MOL      -0.0768
      4 C4        115.5420  137.3355   63.2566 C.ar        1 MOL      -0.0703
      5 C5        114.1471  137.1332   63.1606 C.ar        1 MOL      -0.0263
      6 C6        113.3159  138.0954   63.7796 C.ar        1 MOL      -0.0593
      7 C7        111.9304  137.9793   63.7097 C.ar        1 MOL      -0.0629
      8 C8        111.3587  136.8939   63.0425 C.ar        1 MOL      -0.0420
      9 N         114.2516  134.2782   60.7904 N.pl3       1 MOL      -0.2710
     10 S         111.2034  134.5826   61.7308 S.o2        1 MOL      -0.1624
     11 C9        112.1539  135.9005   62.4067 C.ar        1 MOL       0.0589
     12 C10       113.5897  136.0243   62.4297 C.ar        1 MOL       0.0329
     13 C11       113.7903  133.0069   60.9629 C.ar        1 MOL       0.0604
     14 C12       113.2740  132.3678   59.8088 C.ar        1 MOL      -0.0391
     15 C13       112.5288  131.1861   59.9211 C.ar        1 MOL      -0.0719
     16 C14       112.3216  130.6066   61.1828 C.ar        1 MOL      -0.0738
     17 C15       112.9670  131.1424   62.3109 C.ar        1 MOL      -0.0719
     18 C16       113.7208  132.3312   62.2002 C.ar        1 MOL      -0.0391
     19 O1        109.5514  134.9406   61.6898 O.co2       1 MOL      -0.4795
     20 O2        111.3570  133.2014   62.6990 O.co2       1 MOL      -0.4795
     21 O3        111.6304  134.2635   60.1301 O.co2       1 MOL      -0.4795
     22 H1        116.5962  134.8302   61.3448 H           1 MOL       0.0480
     23 H2        117.4404  136.6306   62.6761 H           1 MOL       0.0576
     24 H3        115.9301  138.1308   63.7809 H           1 MOL       0.0477
     25 H4        113.7149  138.8996   64.2703 H           1 MOL       0.0595
     26 H5        111.3299  138.6888   64.1562 H           1 MOL       0.0613
     27 H6        110.3377  136.8531   63.0464 H           1 MOL       0.0604
     28 H7        114.8147  134.3592   60.0003 H           1 MOL       0.2117
     29 H8        113.3733  132.8053   58.8883 H           1 MOL       0.0532
     30 H9        112.1135  130.7569   59.0860 H           1 MOL       0.0586
     31 H10       111.7287  129.7786   61.2699 H           1 MOL       0.0516
     32 H11       112.8721  130.6886   63.2188 H           1 MOL       0.0586
     33 H12       114.1360  132.7380   63.0410 H           1 MOL       0.0532
@<TRIPOS>BOND
     1     1     2  ar
     2     1     9   1
     3     1    12  ar
     4     2     3  ar
     5     3     4  ar
     6     4     5  ar
     7     5     6  ar
     8     5    12  ar
     9     6     7  ar
    10     7     8  ar
    11     8    11  ar
    12     9    13   1
    13    11    10   1
    14    10    19  ar
    15    10    20  ar
    16    10    21  ar
    17    11    12  ar
    18    13    14  ar
    19    13    18  ar
    20    14    15  ar
    21    15    16  ar
    22    16    17  ar
    23    17    18  ar
    24     2    22   1
    25     3    23   1
    26     4    24   1
    27     6    25   1
    28     7    26   1
    29     8    27   1
    30     9    28   1
    31    14    29   1
    32    15    30   1
    33    16    31   1
    34    17    32   1
    35    18    33   1
@<TRIPOS>SUBSTRUCTURE
     1  MOL      1

