@<TRIPOS>MOLECULE
3pxf_ligand_080
    33    35
SMALL
GAST_HUCK
****
This file was generated by PARSER (from files_GN.cpp)

@<TRIPOS>ATOM
      1 C1        124.9076  135.0502   66.5561 C.ar        1 MOL       0.0730
      2 C2        124.6601  133.9224   65.7321 C.ar        1 MOL      -0.0412
      3 C3        125.0376  132.6342   66.1210 C.ar        1 MOL      -0.0768
      4 C4        125.6602  132.4404   67.3560 C.ar        1 MOL      -0.0703
      5 C5        125.9300  133.5394   68.1987 C.ar        1 MOL      -0.0263
      6 C6        126.5449  133.2661   69.4391 C.ar        1 MOL      -0.0593
      7 C7        126.8482  134.3045   70.3196 C.ar        1 MOL      -0.0629
      8 C8        126.5764  135.6254   69.9525 C.ar        1 MOL      -0.0420
      9 N         124.3671  136.2485   66.2009 N.pl3       1 MOL      -0.2710
     10 S         125.9456  137.6732   68.3745 S.o2        1 MOL      -0.1624
     11 C9        125.9954  135.9441   68.7018 C.ar        1 MOL       0.0589
     12 C10       125.5954  134.8841   67.8098 C.ar        1 MOL       0.0329
     13 C11       123.9019  136.7288   65.0063 C.ar        1 MOL       0.0604
     14 C12       124.5029  136.4349   63.7584 C.ar        1 MOL      -0.0391
     15 C13       123.9986  136.9966   62.5703 C.ar        1 MOL      -0.0719
     16 C14       122.9125  137.8893   62.6202 C.ar        1 MOL      -0.0738
     17 C15       122.3475  138.2380   63.8600 C.ar        1 MOL      -0.0719
     18 C16       122.8460  137.6683   65.0462 C.ar        1 MOL      -0.0391
     19 O1        124.3587  138.2333   68.5551 O.co2       1 MOL      -0.4795
     20 O2        126.4910  137.9870   66.8046 O.co2       1 MOL      -0.4795
     21 O3        126.9193  138.5577   69.4383 O.co2       1 MOL      -0.4795
     22 H1        124.1247  134.0074   64.8651 H           1 MOL       0.0480
     23 H2        124.8226  131.8315   65.5233 H           1 MOL       0.0576
     24 H3        125.9059  131.4840   67.6330 H           1 MOL       0.0477
     25 H4        126.7673  132.3059   69.7209 H           1 MOL       0.0595
     26 H5        127.2856  134.1001   71.2223 H           1 MOL       0.0613
     27 H6        126.8370  136.3536   70.6218 H           1 MOL       0.0604
     28 H7        124.2550  136.8658   66.9306 H           1 MOL       0.2117
     29 H8        125.3227  135.8244   63.7090 H           1 MOL       0.0532
     30 H9        124.4266  136.7638   61.6749 H           1 MOL       0.0586
     31 H10       122.5418  138.2964   61.7584 H           1 MOL       0.0516
     32 H11       121.5778  138.9070   63.8998 H           1 MOL       0.0586
     33 H12       122.4291  137.9383   65.9415 H           1 MOL       0.0532
@<TRIPOS>BOND
     1     1     2  ar
     2     1     9   1
     3     1    12  ar
     4     2     3  ar
     5     3     4  ar
     6     4     5  ar
     7     5     6  ar
     8     5    12  ar
     9     6     7  ar
    10     7     8  ar
    11     8    11  ar
    12     9    13   1
    13    11    10   1
    14    10    19  ar
    15    10    20  ar
    16    10    21  ar
    17    11    12  ar
    18    13    14  ar
    19    13    18  ar
    20    14    15  ar
    21    15    16  ar
    22    16    17  ar
    23    17    18  ar
    24     2    22   1
    25     3    23   1
    26     4    24   1
    27     6    25   1
    28     7    26   1
    29     8    27   1
    30     9    28   1
    31    14    29   1
    32    15    30   1
    33    16    31   1
    34    17    32   1
    35    18    33   1
@<TRIPOS>SUBSTRUCTURE
     1  MOL      1

