@<TRIPOS>MOLECULE
3pxf_ligand_015
    33    35
SMALL
GAST_HUCK
****
This file was generated by PARSER (from files_GN.cpp)

@<TRIPOS>ATOM
      1 C1        114.6806  135.6268   61.7249 C.ar        1 MOL       0.0730
      2 C2        114.2242  136.8391   62.2854 C.ar        1 MOL      -0.0412
      3 C3        112.9068  136.9690   62.7434 C.ar        1 MOL      -0.0768
      4 C4        112.0314  135.8766   62.6537 C.ar        1 MOL      -0.0703
      5 C5        112.4410  134.6849   62.0193 C.ar        1 MOL      -0.0263
      6 C6        111.5012  133.6330   61.9109 C.ar        1 MOL      -0.0593
      7 C7        111.8227  132.4646   61.2086 C.ar        1 MOL      -0.0629
      8 C8        113.0569  132.3713   60.5612 C.ar        1 MOL      -0.0420
      9 N         116.0228  135.5254   61.5507 N.pl3       1 MOL      -0.2710
     10 S         115.3313  133.2258   59.4915 S.o2        1 MOL      -0.1624
     11 C9        114.0092  133.4178   60.6460 C.ar        1 MOL       0.0589
     12 C10       113.7603  134.5651   61.4768 C.ar        1 MOL       0.0329
     13 C11       116.8586  134.7046   62.2712 C.ar        1 MOL       0.0604
     14 C12       116.5838  134.2780   63.5931 C.ar        1 MOL      -0.0391
     15 C13       117.5516  133.5714   64.3291 C.ar        1 MOL      -0.0719
     16 C14       118.7950  133.2607   63.7453 C.ar        1 MOL      -0.0738
     17 C15       119.0784  133.6836   62.4305 C.ar        1 MOL      -0.0719
     18 C16       118.1264  134.4214   61.7152 C.ar        1 MOL      -0.0391
     19 O1        114.7053  132.7474   57.9829 O.co2       1 MOL      -0.4795
     20 O2        116.3501  131.9873   60.0468 O.co2       1 MOL      -0.4795
     21 O3        116.2058  134.6658   59.2727 O.co2       1 MOL      -0.4795
     22 H1        114.8603  137.6212   62.4490 H           1 MOL       0.0480
     23 H2        112.6021  137.8409   63.1881 H           1 MOL       0.0576
     24 H3        111.0782  135.9854   63.0322 H           1 MOL       0.0477
     25 H4        110.5666  133.7047   62.3343 H           1 MOL       0.0595
     26 H5        111.1463  131.7069   61.1308 H           1 MOL       0.0613
     27 H6        113.2331  131.5377   59.9951 H           1 MOL       0.0604
     28 H7        116.4660  136.3573   61.2512 H           1 MOL       0.2117
     29 H8        115.7104  134.5359   64.0526 H           1 MOL       0.0532
     30 H9        117.3732  133.3079   65.3077 H           1 MOL       0.0586
     31 H10       119.5021  132.7460   64.2849 H           1 MOL       0.0516
     32 H11       119.9841  133.4675   62.0172 H           1 MOL       0.0586
     33 H12       118.3630  134.7636   60.7839 H           1 MOL       0.0532
@<TRIPOS>BOND
     1     1     2  ar
     2     1     9   1
     3     1    12  ar
     4     2     3  ar
     5     3     4  ar
     6     4     5  ar
     7     5     6  ar
     8     5    12  ar
     9     6     7  ar
    10     7     8  ar
    11     8    11  ar
    12     9    13   1
    13    11    10   1
    14    10    19  ar
    15    10    20  ar
    16    10    21  ar
    17    11    12  ar
    18    13    14  ar
    19    13    18  ar
    20    14    15  ar
    21    15    16  ar
    22    16    17  ar
    23    17    18  ar
    24     2    22   1
    25     3    23   1
    26     4    24   1
    27     6    25   1
    28     7    26   1
    29     8    27   1
    30     9    28   1
    31    14    29   1
    32    15    30   1
    33    16    31   1
    34    17    32   1
    35    18    33   1
@<TRIPOS>SUBSTRUCTURE
     1  MOL      1

