@<TRIPOS>MOLECULE
3pxf_ligand_084
    33    35
SMALL
GAST_HUCK
****
This file was generated by PARSER (from files_GN.cpp)

@<TRIPOS>ATOM
      1 C1        115.2630  137.3162   62.8554 C.ar        1 MOL       0.0730
      2 C2        115.8470  137.7310   61.6353 C.ar        1 MOL      -0.0412
      3 C3        117.2370  137.7823   61.4931 C.ar        1 MOL      -0.0768
      4 C4        118.0649  137.4495   62.5726 C.ar        1 MOL      -0.0703
      5 C5        117.5068  136.9729   63.7766 C.ar        1 MOL      -0.0263
      6 C6        118.3725  136.6123   64.8350 C.ar        1 MOL      -0.0593
      7 C7        117.8538  136.0954   66.0274 C.ar        1 MOL      -0.0629
      8 C8        116.4762  135.8665   66.1455 C.ar        1 MOL      -0.0420
      9 N         113.9532  137.5919   63.0670 N.pl3       1 MOL      -0.2710
     10 S         113.9795  135.4774   65.2019 S.o2        1 MOL      -0.1624
     11 C9        115.5893  136.1641   65.0846 C.ar        1 MOL       0.0589
     12 C10       116.0891  136.8237   63.9159 C.ar        1 MOL       0.0329
     13 C11       112.8488  137.2702   62.3211 C.ar        1 MOL       0.0604
     14 C12       111.7052  138.0963   62.4183 C.ar        1 MOL      -0.0391
     15 C13       110.4844  137.7081   61.8323 C.ar        1 MOL      -0.0719
     16 C14       110.3787  136.4648   61.1858 C.ar        1 MOL      -0.0738
     17 C15       111.4993  135.6221   61.1039 C.ar        1 MOL      -0.0719
     18 C16       112.7294  136.0235   61.6594 C.ar        1 MOL      -0.0391
     19 O1        112.7854  136.6657   65.0262 O.co2       1 MOL      -0.4795
     20 O2        113.7003  134.7737   66.7106 O.co2       1 MOL      -0.4795
     21 O3        113.8208  134.3015   63.9894 O.co2       1 MOL      -0.4795
     22 H1        115.2616  138.1057   60.8853 H           1 MOL       0.0480
     23 H2        117.6430  138.1033   60.6131 H           1 MOL       0.0576
     24 H3        119.0723  137.5578   62.4711 H           1 MOL       0.0477
     25 H4        119.3845  136.7412   64.7502 H           1 MOL       0.0595
     26 H5        118.4834  135.8465   66.7979 H           1 MOL       0.0613
     27 H6        116.1272  135.4534   67.0144 H           1 MOL       0.0604
     28 H7        113.7567  137.9794   63.9275 H           1 MOL       0.2117
     29 H8        111.7527  138.9779   62.9394 H           1 MOL       0.0532
     30 H9        109.6660  138.3162   61.8945 H           1 MOL       0.0586
     31 H10       109.4842  136.1629   60.8008 H           1 MOL       0.0516
     32 H11       111.4183  134.7068   60.6618 H           1 MOL       0.0586
     33 H12       113.5156  135.3711   61.6420 H           1 MOL       0.0532
@<TRIPOS>BOND
     1     1     2  ar
     2     1     9   1
     3     1    12  ar
     4     2     3  ar
     5     3     4  ar
     6     4     5  ar
     7     5     6  ar
     8     5    12  ar
     9     6     7  ar
    10     7     8  ar
    11     8    11  ar
    12     9    13   1
    13    11    10   1
    14    10    19  ar
    15    10    20  ar
    16    10    21  ar
    17    11    12  ar
    18    13    14  ar
    19    13    18  ar
    20    14    15  ar
    21    15    16  ar
    22    16    17  ar
    23    17    18  ar
    24     2    22   1
    25     3    23   1
    26     4    24   1
    27     6    25   1
    28     7    26   1
    29     8    27   1
    30     9    28   1
    31    14    29   1
    32    15    30   1
    33    16    31   1
    34    17    32   1
    35    18    33   1
@<TRIPOS>SUBSTRUCTURE
     1  MOL      1

