@<TRIPOS>MOLECULE
3pxf_ligand_072
    33    35
SMALL
GAST_HUCK
****
This file was generated by PARSER (from files_GN.cpp)

@<TRIPOS>ATOM
      1 C1        130.4154  127.1507   70.3357 C.ar        1 MOL       0.0730
      2 C2        131.5816  126.3917   70.0507 C.ar        1 MOL      -0.0412
      3 C3        132.4516  125.9901   71.0698 C.ar        1 MOL      -0.0768
      4 C4        132.1599  126.3100   72.3947 C.ar        1 MOL      -0.0703
      5 C5        131.0083  127.0612   72.7099 C.ar        1 MOL      -0.0263
      6 C6        130.7584  127.3189   74.0730 C.ar        1 MOL      -0.0593
      7 C7        129.6490  128.0710   74.4603 C.ar        1 MOL      -0.0629
      8 C8        128.8027  128.6063   73.4853 C.ar        1 MOL      -0.0420
      9 N         129.5358  127.3807   69.3189 N.pl3       1 MOL      -0.2710
     10 S         127.9925  129.3389   71.0601 S.o2        1 MOL      -0.1624
     11 C9        129.0370  128.3905   72.1040 C.ar        1 MOL       0.0589
     12 C10       130.1202  127.5352   71.6873 C.ar        1 MOL       0.0329
     13 C11       129.7141  127.5337   67.9732 C.ar        1 MOL       0.0604
     14 C12       130.8864  128.0853   67.3984 C.ar        1 MOL      -0.0391
     15 C13       130.9671  128.3305   66.0145 C.ar        1 MOL      -0.0719
     16 C14       129.8614  128.0592   65.1892 C.ar        1 MOL      -0.0738
     17 C15       128.6820  127.5301   65.7452 C.ar        1 MOL      -0.0719
     18 C16       128.6108  127.2733   67.1293 C.ar        1 MOL      -0.0391
     19 O1        127.2198  130.5903   71.8985 O.co2       1 MOL      -0.4795
     20 O2        126.8010  128.3298   70.4107 O.co2       1 MOL      -0.4795
     21 O3        128.8784  130.0472   69.8069 O.co2       1 MOL      -0.4795
     22 H1        131.7760  126.0539   69.1102 H           1 MOL       0.0480
     23 H2        133.2786  125.4286   70.8491 H           1 MOL       0.0576
     24 H3        132.7935  125.9823   73.1262 H           1 MOL       0.0477
     25 H4        131.3843  126.9711   74.8012 H           1 MOL       0.0595
     26 H5        129.4692  128.2525   75.4474 H           1 MOL       0.0613
     27 H6        128.0214  129.1769   73.8100 H           1 MOL       0.0604
     28 H7        128.6237  127.5034   69.5991 H           1 MOL       0.2117
     29 H8        131.6779  128.3506   67.9847 H           1 MOL       0.0532
     30 H9        131.8103  128.7417   65.6145 H           1 MOL       0.0586
     31 H10       129.9076  128.2588   64.1874 H           1 MOL       0.0516
     32 H11       127.8708  127.3543   65.1508 H           1 MOL       0.0586
     33 H12       127.7384  126.9105   67.5195 H           1 MOL       0.0532
@<TRIPOS>BOND
     1     1     2  ar
     2     1     9   1
     3     1    12  ar
     4     2     3  ar
     5     3     4  ar
     6     4     5  ar
     7     5     6  ar
     8     5    12  ar
     9     6     7  ar
    10     7     8  ar
    11     8    11  ar
    12     9    13   1
    13    11    10   1
    14    10    19  ar
    15    10    20  ar
    16    10    21  ar
    17    11    12  ar
    18    13    14  ar
    19    13    18  ar
    20    14    15  ar
    21    15    16  ar
    22    16    17  ar
    23    17    18  ar
    24     2    22   1
    25     3    23   1
    26     4    24   1
    27     6    25   1
    28     7    26   1
    29     8    27   1
    30     9    28   1
    31    14    29   1
    32    15    30   1
    33    16    31   1
    34    17    32   1
    35    18    33   1
@<TRIPOS>SUBSTRUCTURE
     1  MOL      1

