@<TRIPOS>MOLECULE
3pxf_ligand_034
    33    35
SMALL
GAST_HUCK
****
This file was generated by PARSER (from files_GN.cpp)

@<TRIPOS>ATOM
      1 C1        119.2796  130.9988   63.2128 C.ar        1 MOL       0.0730
      2 C2        119.1618  129.5920   63.0836 C.ar        1 MOL      -0.0412
      3 C3        117.9162  128.9880   62.8896 C.ar        1 MOL      -0.0768
      4 C4        116.7629  129.7768   62.8419 C.ar        1 MOL      -0.0703
      5 C5        116.8500  131.1749   63.0037 C.ar        1 MOL      -0.0263
      6 C6        115.6360  131.9099   62.9529 C.ar        1 MOL      -0.0593
      7 C7        115.6515  133.2963   63.1625 C.ar        1 MOL      -0.0629
      8 C8        116.8491  133.9415   63.4690 C.ar        1 MOL      -0.0420
      9 N         120.5193  131.5573   63.1693 N.pl3       1 MOL      -0.2710
     10 S         119.3926  134.1805   64.2525 S.o2        1 MOL      -0.1624
     11 C9        118.0866  133.2345   63.5483 C.ar        1 MOL       0.0589
     12 C10       118.1041  131.8226   63.2471 C.ar        1 MOL       0.0329
     13 C11       121.6396  131.1796   63.8595 C.ar        1 MOL       0.0604
     14 C12       121.5680  130.7188   65.1999 C.ar        1 MOL      -0.0391
     15 C13       122.7368  130.5920   65.9749 C.ar        1 MOL      -0.0719
     16 C14       123.9871  130.8829   65.4123 C.ar        1 MOL      -0.0738
     17 C15       124.0749  131.3371   64.0840 C.ar        1 MOL      -0.0719
     18 C16       122.9046  131.4898   63.3176 C.ar        1 MOL      -0.0391
     19 O1        119.7872  133.5326   65.7673 O.co2       1 MOL      -0.4795
     20 O2        118.9582  135.8089   64.4681 O.co2       1 MOL      -0.4795
     21 O3        120.7549  134.1052   63.2470 O.co2       1 MOL      -0.4795
     22 H1        119.9998  129.0073   63.0395 H           1 MOL       0.0480
     23 H2        117.8606  127.9743   62.7513 H           1 MOL       0.0576
     24 H3        115.8633  129.3086   62.7186 H           1 MOL       0.0477
     25 H4        114.7416  131.4443   62.7736 H           1 MOL       0.0595
     26 H5        114.7691  133.8225   63.1276 H           1 MOL       0.0613
     27 H6        116.7896  134.9447   63.6817 H           1 MOL       0.0604
     28 H7        120.5999  132.3866   62.6792 H           1 MOL       0.2117
     29 H8        120.6684  130.5483   65.6521 H           1 MOL       0.0532
     30 H9        122.6707  130.3146   66.9616 H           1 MOL       0.0586
     31 H10       124.8382  130.7881   65.9704 H           1 MOL       0.0516
     32 H11       124.9806  131.5783   63.6767 H           1 MOL       0.0586
     33 H12       122.9646  131.8545   62.3653 H           1 MOL       0.0532
@<TRIPOS>BOND
     1     1     2  ar
     2     1     9   1
     3     1    12  ar
     4     2     3  ar
     5     3     4  ar
     6     4     5  ar
     7     5     6  ar
     8     5    12  ar
     9     6     7  ar
    10     7     8  ar
    11     8    11  ar
    12     9    13   1
    13    11    10   1
    14    10    19  ar
    15    10    20  ar
    16    10    21  ar
    17    11    12  ar
    18    13    14  ar
    19    13    18  ar
    20    14    15  ar
    21    15    16  ar
    22    16    17  ar
    23    17    18  ar
    24     2    22   1
    25     3    23   1
    26     4    24   1
    27     6    25   1
    28     7    26   1
    29     8    27   1
    30     9    28   1
    31    14    29   1
    32    15    30   1
    33    16    31   1
    34    17    32   1
    35    18    33   1
@<TRIPOS>SUBSTRUCTURE
     1  MOL      1

