@<TRIPOS>MOLECULE
3pxf_ligand_048
    33    35
SMALL
GAST_HUCK
****
This file was generated by PARSER (from files_GN.cpp)

@<TRIPOS>ATOM
      1 C1        128.9367  128.5833   72.2042 C.ar        1 MOL       0.0730
      2 C2        129.5035  128.2886   73.4673 C.ar        1 MOL      -0.0412
      3 C3        128.8632  128.6428   74.6576 C.ar        1 MOL      -0.0768
      4 C4        127.6165  129.2814   74.6073 C.ar        1 MOL      -0.0703
      5 C5        127.0493  129.6496   73.3667 C.ar        1 MOL      -0.0263
      6 C6        125.8188  130.3432   73.3786 C.ar        1 MOL      -0.0593
      7 C7        125.2445  130.7773   72.1780 C.ar        1 MOL      -0.0629
      8 C8        125.9198  130.5693   70.9742 C.ar        1 MOL      -0.0420
      9 N         129.4818  127.9986   71.1054 N.pl3       1 MOL      -0.2710
     10 S         128.0014  130.0360   69.3789 S.o2        1 MOL      -0.1624
     11 C9        127.1750  129.9114   70.9291 C.ar        1 MOL       0.0589
     12 C10       127.7219  129.3482   72.1342 C.ar        1 MOL       0.0329
     13 C11       130.7997  127.8150   70.7958 C.ar        1 MOL       0.0604
     14 C12       131.7536  128.8485   70.9839 C.ar        1 MOL      -0.0391
     15 C13       133.0646  128.7048   70.4925 C.ar        1 MOL      -0.0719
     16 C14       133.4390  127.5397   69.7968 C.ar        1 MOL      -0.0738
     17 C15       132.4968  126.5076   69.6134 C.ar        1 MOL      -0.0719
     18 C16       131.1860  126.6427   70.1097 C.ar        1 MOL      -0.0391
     19 O1        129.6216  130.4618   69.5942 O.co2       1 MOL      -0.4795
     20 O2        127.2832  131.2204   68.4046 O.co2       1 MOL      -0.4795
     21 O3        127.9247  128.5542   68.5623 O.co2       1 MOL      -0.4795
     22 H1        130.3576  127.7306   73.5402 H           1 MOL       0.0480
     23 H2        129.2751  128.3940   75.5654 H           1 MOL       0.0576
     24 H3        127.1462  129.4916   75.4936 H           1 MOL       0.0477
     25 H4        125.3326  130.5515   74.2518 H           1 MOL       0.0595
     26 H5        124.3808  131.3185   72.1891 H           1 MOL       0.0613
     27 H6        125.4962  130.9698   70.1365 H           1 MOL       0.0604
     28 H7        128.8547  127.7005   70.4302 H           1 MOL       0.2117
     29 H8        131.4874  129.7292   71.4344 H           1 MOL       0.0532
     30 H9        133.7371  129.4684   70.6116 H           1 MOL       0.0586
     31 H10       134.3753  127.4595   69.4037 H           1 MOL       0.0516
     32 H11       132.7656  125.6619   69.1012 H           1 MOL       0.0586
     33 H12       130.5129  125.8851   69.9614 H           1 MOL       0.0532
@<TRIPOS>BOND
     1     1     2  ar
     2     1     9   1
     3     1    12  ar
     4     2     3  ar
     5     3     4  ar
     6     4     5  ar
     7     5     6  ar
     8     5    12  ar
     9     6     7  ar
    10     7     8  ar
    11     8    11  ar
    12     9    13   1
    13    11    10   1
    14    10    19  ar
    15    10    20  ar
    16    10    21  ar
    17    11    12  ar
    18    13    14  ar
    19    13    18  ar
    20    14    15  ar
    21    15    16  ar
    22    16    17  ar
    23    17    18  ar
    24     2    22   1
    25     3    23   1
    26     4    24   1
    27     6    25   1
    28     7    26   1
    29     8    27   1
    30     9    28   1
    31    14    29   1
    32    15    30   1
    33    16    31   1
    34    17    32   1
    35    18    33   1
@<TRIPOS>SUBSTRUCTURE
     1  MOL      1

