@<TRIPOS>MOLECULE
3s8o_ligand_009
    67    68
SMALL
GAST_HUCK
****
This file was generated by PARSER (from files_GN.cpp)

@<TRIPOS>ATOM
      1 C           9.3800   -6.3728    2.4486 C.2         1 ACE       0.1753
      2 O           9.3121   -7.5007    2.9339 O.2         1 ACE      -0.3972
      3 CH3         9.4395   -5.2412    3.3445 C.3         1 ACE       0.0258
      4 N           9.4636   -6.1779    1.1301 N.am        1 ACE      -0.2628
      5 CA          9.4631   -7.1308    0.0453 C.3         1 ACE       0.1465
      6 C           8.1069   -7.3592   -0.4549 C.2         1 ACE       0.2045
      7 O           7.8807   -7.1199   -1.6371 O.2         1 ACE      -0.3944
      8 CB         10.2516   -8.4504    0.3449 C.3         1 ACE       0.0400
      9 CG         10.6473   -9.2863   -0.8328 C.ar        1 ACE      -0.0004
     10 CD1        10.3069  -10.6604   -0.9041 C.ar        1 ACE      -0.0239
     11 CD2        11.4777   -8.7587   -1.8520 C.ar        1 ACE      -0.0239
     12 CE1        10.7846  -11.4840   -1.9482 C.ar        1 ACE       0.0115
     13 CE2        11.9428   -9.5770   -2.9092 C.ar        1 ACE       0.0115
     14 CZ         11.5776  -10.9388   -2.9772 C.ar        1 ACE       0.1728
     15 OH         12.1131  -11.7508   -3.9531 O.3         1 ACE      -0.2040
     16 P          11.2742  -11.8125   -5.2676 P.3         1 ACE       0.1348
     17 O1P        11.2633  -10.5595   -5.9837 O.co2       1 ACE      -0.6653
     18 O2P        11.8931  -12.7882   -6.1302 O.co2       1 ACE      -0.6653
     19 O3P         9.9243  -12.2560   -5.0383 O.co2       1 ACE      -0.6653
     20 O           4.7295   -9.4309    1.6541 O.2         1 ACE      -0.3419
     21 CD          3.3202   -7.8503   -1.7434 C.3         1 ACE      -0.0532
     22 CG          3.9839   -9.1917   -1.3393 C.3         1 ACE      -0.0516
     23 CE          3.5397   -6.7499   -0.6730 C.3         1 ACE      -0.0516
     24 CB          5.4819   -9.0088   -0.9620 C.3         1 ACE      -0.0199
     25 CH          5.0479   -6.5833   -0.3435 C.3         1 ACE      -0.0199
     26 N           7.1380   -7.7463    0.3775 N.am        1 ACE      -0.2738
     27 C           5.1887   -8.3121    1.4840 C.2         1 ACE       0.2267
     28 CA          5.7163   -7.9192    0.1538 C.3         1 ACE       0.1331
     29 N           5.2629   -7.4737    2.5219 N.am        1 ACE      -0.2608
     30 CA          4.8530   -7.6628    3.8963 C.3         1 ACE       0.1474
     31 C           5.7960   -8.4930    4.6251 C.2         1 ACE       0.2017
     32 O           6.1419   -9.5822    4.1793 O.2         1 ACE      -0.3945
     33 CB          3.3585   -8.1084    4.0376 C.3         1 ACE       0.0774
     34 CG          2.8094   -8.2362    5.3873 C.2         1 ACE       0.1781
     35 OD1         3.5127   -8.3372    6.3866 O.2         1 ACE      -0.3970
     36 ND2         1.5082   -8.2857    5.5580 N.am        1 ACE      -0.3007
     37 N           6.3008   -8.1358    5.7908 N.am        1 ACE      -0.2988
     38 H1          9.4393   -4.2857    2.8037 H           1 ACE       0.0467
     39 H2         10.3554   -5.3116    3.9383 H           1 ACE       0.0467
     40 H3          8.5745   -5.2666    4.0123 H           1 ACE       0.0467
     41 H4          9.5507   -5.2487    0.8481 H           1 ACE       0.1885
     42 H5         10.0317   -6.6081   -0.7348 H           1 ACE       0.0840
     43 H6          9.6705   -9.0592    1.0422 H           1 ACE       0.0584
     44 H7         11.1782   -8.1917    0.8606 H           1 ACE       0.0584
     45 H8          9.7406  -11.0924   -0.1745 H           1 ACE       0.0703
     46 H9         11.7895   -7.7876   -1.8173 H           1 ACE       0.0703
     47 H10        10.5627  -12.4839   -1.9519 H           1 ACE       0.0736
     48 H11        12.5618   -9.1749   -3.6266 H           1 ACE       0.0736
     49 H12         2.2477   -8.0039   -1.8845 H           1 ACE       0.0265
     50 H13         3.7384   -7.5114   -2.6951 H           1 ACE       0.0265
     51 H14         3.9093   -9.8901   -2.1754 H           1 ACE       0.0265
     52 H15         3.4311   -9.6223   -0.5019 H           1 ACE       0.0265
     53 H16         2.9882   -7.0043    0.2364 H           1 ACE       0.0265
     54 H17         3.1455   -5.8002   -1.0455 H           1 ACE       0.0265
     55 H18         6.0118   -8.7315   -1.8773 H           1 ACE       0.0277
     56 H19         5.8985   -9.9683   -0.6449 H           1 ACE       0.0277
     57 H20         5.1703   -5.7838    0.3923 H           1 ACE       0.0277
     58 H21         5.5404   -6.2351   -1.2561 H           1 ACE       0.0277
     59 H22         7.4450   -7.9205    1.2838 H           1 ACE       0.1839
     60 H23         5.6416   -6.6034    2.3279 H           1 ACE       0.1891
     61 H24         4.8922   -6.6544    4.3306 H           1 ACE       0.0828
     62 H25         3.2088   -9.0711    3.5307 H           1 ACE       0.0551
     63 H26         2.7537   -7.3656    3.5065 H           1 ACE       0.0551
     64 H27         1.1354   -8.4268    6.4484 H           1 ACE       0.1814
     65 H28         0.9105   -8.1822    4.7942 H           1 ACE       0.1814
     66 H29         6.9187   -8.7248    6.2555 H           1 ACE       0.1815
     67 H30         6.0269   -7.3053    6.2130 H           1 ACE       0.1815
@<TRIPOS>BOND
     1     1     2   2
     2     1     3   1
     3     4     1  am
     4     5     4   1
     5     6     5   1
     6     5     8   1
     7     6     7   2
     8    26     6  am
     9     8     9   1
    10     9    10  ar
    11     9    11  ar
    12    10    12  ar
    13    11    13  ar
    14    12    14  ar
    15    13    14  ar
    16    14    15   1
    17    15    16   1
    18    16    17  ar
    19    16    18  ar
    20    16    19  ar
    21    27    20   2
    22    22    21   1
    23    23    21   1
    24    24    22   1
    25    25    23   1
    26    28    24   1
    27    28    25   1
    28    28    26   1
    29    27    28   1
    30    27    29  am
    31    29    30   1
    32    30    31   1
    33    30    33   1
    34    31    32   2
    35    31    37  am
    36    33    34   1
    37    34    35   2
    38    34    36  am
    39     3    38   1
    40     3    39   1
    41     3    40   1
    42     4    41   1
    43     5    42   1
    44     8    43   1
    45     8    44   1
    46    10    45   1
    47    11    46   1
    48    12    47   1
    49    13    48   1
    50    21    49   1
    51    21    50   1
    52    22    51   1
    53    22    52   1
    54    23    53   1
    55    23    54   1
    56    24    55   1
    57    24    56   1
    58    25    57   1
    59    25    58   1
    60    26    59   1
    61    29    60   1
    62    30    61   1
    63    33    62   1
    64    33    63   1
    65    36    64   1
    66    36    65   1
    67    37    66   1
    68    37    67   1
@<TRIPOS>SUBSTRUCTURE
     1  ACE      1

