@<TRIPOS>MOLECULE
3s8o_ligand_069
    67    68
SMALL
GAST_HUCK
****
This file was generated by PARSER (from files_GN.cpp)

@<TRIPOS>ATOM
      1 C           5.0272   -3.5038    4.7090 C.2         1 ACE       0.1753
      2 O           4.0852   -3.9552    5.3497 O.2         1 ACE      -0.3972
      3 CH3         5.4685   -2.1655    5.0242 C.3         1 ACE       0.0258
      4 N           5.6379   -4.2073    3.7593 N.am        1 ACE      -0.2628
      5 CA          5.3438   -5.5579    3.3391 C.3         1 ACE       0.1465
      6 C           4.0192   -5.6793    2.7029 C.2         1 ACE       0.2045
      7 O           3.3347   -4.6930    2.5006 O.2         1 ACE      -0.3944
      8 CB          5.6504   -6.5925    4.4845 C.3         1 ACE       0.0400
      9 CG          7.1009   -6.9295    4.6241 C.ar        1 ACE      -0.0004
     10 CD1         7.5639   -8.2533    4.4219 C.ar        1 ACE      -0.0239
     11 CD2         8.0478   -5.9367    4.9721 C.ar        1 ACE      -0.0239
     12 CE1         8.9302   -8.5630    4.5351 C.ar        1 ACE       0.0115
     13 CE2         9.4178   -6.2405    5.0564 C.ar        1 ACE       0.0115
     14 CZ          9.8734   -7.5527    4.8161 C.ar        1 ACE       0.1728
     15 OH         11.2047   -7.8463    4.9442 O.3         1 ACE      -0.2040
     16 P          11.9862   -7.8687    3.5905 P.3         1 ACE       0.1348
     17 O1P        11.9050   -6.6247    2.8771 O.co2       1 ACE      -0.6653
     18 O2P        13.3760   -8.0967    3.8901 O.co2       1 ACE      -0.6653
     19 O3P        11.5667   -8.9487    2.7395 O.co2       1 ACE      -0.6653
     20 O           2.0554   -5.8577   -0.4610 O.2         1 ACE      -0.3419
     21 CD         -0.1904   -8.7577    1.3354 C.3         1 ACE      -0.0532
     22 CG         -0.1672   -7.2096    1.3702 C.3         1 ACE      -0.0516
     23 CE          1.1103   -9.3231    0.7162 C.3         1 ACE      -0.0516
     24 CB          1.1173   -6.6572    2.0569 C.3         1 ACE      -0.0199
     25 CH          2.3582   -8.7742    1.4592 C.3         1 ACE      -0.0199
     26 N           3.6136   -6.8713    2.2581 N.am        1 ACE      -0.2738
     27 C           2.7576   -6.7130    0.0749 C.2         1 ACE       0.2267
     28 CA          2.4622   -7.2021    1.4382 C.3         1 ACE       0.1331
     29 N           3.8191   -7.1824   -0.5657 N.am        1 ACE      -0.2608
     30 CA          4.2547   -6.9087   -1.9101 C.3         1 ACE       0.1474
     31 C           3.6586   -7.8420   -2.8653 C.2         1 ACE       0.2017
     32 O           3.4510   -7.4874   -4.0152 O.2         1 ACE      -0.3945
     33 CB          5.8120   -6.8976   -2.0008 C.3         1 ACE       0.0774
     34 CG          6.4724   -8.1067   -1.5213 C.2         1 ACE       0.1781
     35 OD1         6.8629   -8.9595   -2.2963 O.2         1 ACE      -0.3970
     36 ND2         6.6862   -8.2974   -0.2352 N.am        1 ACE      -0.3007
     37 N           3.4090   -9.1006   -2.5731 N.am        1 ACE      -0.2988
     38 H1          6.2977   -1.8477    4.3877 H           1 ACE       0.0467
     39 H2          5.7942   -2.1153    6.0658 H           1 ACE       0.0467
     40 H3          4.6377   -1.4736    4.8808 H           1 ACE       0.0467
     41 H4          6.3756   -3.7697    3.3023 H           1 ACE       0.1885
     42 H5          6.0421   -5.7674    2.5240 H           1 ACE       0.0840
     43 H6          5.0852   -7.5123    4.3107 H           1 ACE       0.0584
     44 H7          5.2979   -6.2093    5.4440 H           1 ACE       0.0584
     45 H8          6.9084   -9.0019    4.1862 H           1 ACE       0.0703
     46 H9          7.7508   -4.9789    5.1655 H           1 ACE       0.0703
     47 H10         9.2449   -9.5239    4.3872 H           1 ACE       0.0736
     48 H11        10.0862   -5.5037    5.2915 H           1 ACE       0.0736
     49 H12        -1.0514   -9.0968    0.7521 H           1 ACE       0.0265
     50 H13        -0.3029   -9.1408    2.3541 H           1 ACE       0.0265
     51 H14        -1.0509   -6.8508    1.9074 H           1 ACE       0.0265
     52 H15        -0.2305   -6.8329    0.3456 H           1 ACE       0.0265
     53 H16         1.1609   -9.0566   -0.3427 H           1 ACE       0.0265
     54 H17         1.0957  -10.4128    0.7827 H           1 ACE       0.0265
     55 H18         1.0773   -6.9263    3.1168 H           1 ACE       0.0277
     56 H19         1.0768   -5.5659    2.0028 H           1 ACE       0.0277
     57 H20         3.2513   -9.2363    1.0321 H           1 ACE       0.0277
     58 H21         2.3080   -9.1095    2.4998 H           1 ACE       0.0277
     59 H22         4.2165   -7.6124    2.4244 H           1 ACE       0.1839
     60 H23         4.3298   -7.8589   -0.0955 H           1 ACE       0.1891
     61 H24         3.9259   -5.8985   -2.1817 H           1 ACE       0.0828
     62 H25         6.1877   -6.0455   -1.4273 H           1 ACE       0.0551
     63 H26         6.1022   -6.7177   -3.0419 H           1 ACE       0.0551
     64 H27         7.0836   -9.1265    0.0723 H           1 ACE       0.1814
     65 H28         6.4145   -7.6283    0.4104 H           1 ACE       0.1814
     66 H29         3.0502   -9.6960   -3.2526 H           1 ACE       0.1815
     67 H30         3.5756   -9.4399   -1.6804 H           1 ACE       0.1815
@<TRIPOS>BOND
     1     1     2   2
     2     1     3   1
     3     4     1  am
     4     5     4   1
     5     6     5   1
     6     5     8   1
     7     6     7   2
     8    26     6  am
     9     8     9   1
    10     9    10  ar
    11     9    11  ar
    12    10    12  ar
    13    11    13  ar
    14    12    14  ar
    15    13    14  ar
    16    14    15   1
    17    15    16   1
    18    16    17  ar
    19    16    18  ar
    20    16    19  ar
    21    27    20   2
    22    22    21   1
    23    23    21   1
    24    24    22   1
    25    25    23   1
    26    28    24   1
    27    28    25   1
    28    28    26   1
    29    27    28   1
    30    27    29  am
    31    29    30   1
    32    30    31   1
    33    30    33   1
    34    31    32   2
    35    31    37  am
    36    33    34   1
    37    34    35   2
    38    34    36  am
    39     3    38   1
    40     3    39   1
    41     3    40   1
    42     4    41   1
    43     5    42   1
    44     8    43   1
    45     8    44   1
    46    10    45   1
    47    11    46   1
    48    12    47   1
    49    13    48   1
    50    21    49   1
    51    21    50   1
    52    22    51   1
    53    22    52   1
    54    23    53   1
    55    23    54   1
    56    24    55   1
    57    24    56   1
    58    25    57   1
    59    25    58   1
    60    26    59   1
    61    29    60   1
    62    30    61   1
    63    33    62   1
    64    33    63   1
    65    36    64   1
    66    36    65   1
    67    37    66   1
    68    37    67   1
@<TRIPOS>SUBSTRUCTURE
     1  ACE      1

