@<TRIPOS>MOLECULE
3s8o_ligand_010
    67    68
SMALL
GAST_HUCK
****
This file was generated by PARSER (from files_GN.cpp)

@<TRIPOS>ATOM
      1 C           7.5619   -6.7480   -2.9337 C.2         1 ACE       0.1753
      2 O           6.7543   -7.5955   -3.2936 O.2         1 ACE      -0.3972
      3 CH3         7.9546   -5.7372   -3.8881 C.3         1 ACE       0.0258
      4 N           8.0683   -6.7340   -1.7094 N.am        1 ACE      -0.2628
      5 CA          7.8211   -7.6715   -0.6459 C.3         1 ACE       0.1465
      6 C           7.0438   -7.0079    0.3982 C.2         1 ACE       0.2045
      7 O           7.1543   -5.7970    0.5601 O.2         1 ACE      -0.3944
      8 CB          9.1579   -8.2373   -0.0764 C.3         1 ACE       0.0400
      9 CG          9.9003   -9.0926   -1.0426 C.ar        1 ACE      -0.0004
     10 CD1        10.4912   -8.5352   -2.1993 C.ar        1 ACE      -0.0239
     11 CD2        10.0590  -10.4802   -0.8085 C.ar        1 ACE      -0.0239
     12 CE1        11.1973   -9.3406   -3.1085 C.ar        1 ACE       0.0115
     13 CE2        10.7624  -11.2900   -1.7210 C.ar        1 ACE       0.0115
     14 CZ         11.3096  -10.7307   -2.8937 C.ar        1 ACE       0.1728
     15 OH         12.0170  -11.5334   -3.7537 O.3         1 ACE      -0.2040
     16 P          11.3088  -11.7926   -5.1166 P.3         1 ACE       0.1348
     17 O1P         9.9412  -12.2364   -4.9867 O.co2       1 ACE      -0.6653
     18 O2P        11.3595  -10.6261   -5.9685 O.co2       1 ACE      -0.6653
     19 O3P        12.0298  -12.8266   -5.8079 O.co2       1 ACE      -0.6653
     20 O           7.5558   -7.4158    3.5564 O.2         1 ACE      -0.3419
     21 CD          2.7512   -7.6060    1.1664 C.3         1 ACE      -0.0532
     22 CG          3.5679   -8.8592    1.5713 C.3         1 ACE      -0.0516
     23 CE          3.6619   -6.3901    0.8553 C.3         1 ACE      -0.0516
     24 CB          4.5781   -8.5478    2.7172 C.3         1 ACE      -0.0199
     25 CH          4.6396   -6.0952    2.0255 C.3         1 ACE      -0.0199
     26 N           6.3240   -7.7485    1.2397 N.am        1 ACE      -0.2738
     27 C           6.3784   -7.0683    3.5705 C.2         1 ACE       0.2267
     28 CA          5.5303   -7.3382    2.3912 C.3         1 ACE       0.1331
     29 N           5.8741   -6.5211    4.6752 N.am        1 ACE      -0.2608
     30 CA          6.5495   -6.3397    5.9377 C.3         1 ACE       0.1474
     31 C           5.9998   -7.2580    6.9353 C.2         1 ACE       0.2017
     32 O           5.8522   -6.9329    8.1069 O.2         1 ACE      -0.3945
     33 CB          6.5533   -4.8335    6.3428 C.3         1 ACE       0.0774
     34 CG          5.2842   -4.3203    6.8339 C.2         1 ACE       0.1781
     35 OD1         4.4122   -3.9706    6.0529 O.2         1 ACE      -0.3970
     36 ND2         5.0336   -4.2280    8.1251 N.am        1 ACE      -0.3007
     37 N           5.7922   -8.5255    6.6480 N.am        1 ACE      -0.2988
     38 H1          8.7009   -5.0563   -3.4740 H           1 ACE       0.0467
     39 H2          7.0835   -5.1521   -4.1892 H           1 ACE       0.0467
     40 H3          8.3832   -6.2146   -4.7718 H           1 ACE       0.0467
     41 H4          8.6769   -6.0064   -1.5047 H           1 ACE       0.1885
     42 H5          7.2418   -8.5250   -1.0211 H           1 ACE       0.0840
     43 H6          8.9299   -8.8170    0.8237 H           1 ACE       0.0584
     44 H7          9.8010   -7.4143    0.2436 H           1 ACE       0.0584
     45 H8         10.4178   -7.5349   -2.3809 H           1 ACE       0.0703
     46 H9          9.6670  -10.9169    0.0280 H           1 ACE       0.0703
     47 H10        11.6282   -8.9166   -3.9303 H           1 ACE       0.0736
     48 H11        10.8753  -12.2911   -1.5312 H           1 ACE       0.0736
     49 H12         2.0626   -7.3500    1.9768 H           1 ACE       0.0265
     50 H13         2.1545   -7.8423    0.2789 H           1 ACE       0.0265
     51 H14         4.1062   -9.2374    0.6979 H           1 ACE       0.0265
     52 H15         2.8820   -9.6474    1.8985 H           1 ACE       0.0265
     53 H16         3.0377   -5.5101    0.6794 H           1 ACE       0.0265
     54 H17         4.2307   -6.5846   -0.0585 H           1 ACE       0.0265
     55 H18         5.1695   -9.4510    2.9091 H           1 ACE       0.0277
     56 H19         3.9985   -8.3405    3.6215 H           1 ACE       0.0277
     57 H20         4.0430   -5.7928    2.8906 H           1 ACE       0.0277
     58 H21         5.2655   -5.2433    1.7544 H           1 ACE       0.0277
     59 H22         6.3813   -8.7063    1.0837 H           1 ACE       0.1839
     60 H23         4.9382   -6.2744    4.6547 H           1 ACE       0.1891
     61 H24         7.6022   -6.6210    5.8433 H           1 ACE       0.0828
     62 H25         6.8591   -4.2308    5.4822 H           1 ACE       0.0551
     63 H26         7.3234   -4.6854    7.1072 H           1 ACE       0.0551
     64 H27         4.1677   -3.9146    8.4427 H           1 ACE       0.1814
     65 H28         5.6936   -4.5298    8.7722 H           1 ACE       0.1814
     66 H29         5.5053   -9.1460    7.3399 H           1 ACE       0.1815
     67 H30         5.9199   -8.8433    5.7389 H           1 ACE       0.1815
@<TRIPOS>BOND
     1     1     2   2
     2     1     3   1
     3     4     1  am
     4     5     4   1
     5     6     5   1
     6     5     8   1
     7     6     7   2
     8    26     6  am
     9     8     9   1
    10     9    10  ar
    11     9    11  ar
    12    10    12  ar
    13    11    13  ar
    14    12    14  ar
    15    13    14  ar
    16    14    15   1
    17    15    16   1
    18    16    17  ar
    19    16    18  ar
    20    16    19  ar
    21    27    20   2
    22    22    21   1
    23    23    21   1
    24    24    22   1
    25    25    23   1
    26    28    24   1
    27    28    25   1
    28    28    26   1
    29    27    28   1
    30    27    29  am
    31    29    30   1
    32    30    31   1
    33    30    33   1
    34    31    32   2
    35    31    37  am
    36    33    34   1
    37    34    35   2
    38    34    36  am
    39     3    38   1
    40     3    39   1
    41     3    40   1
    42     4    41   1
    43     5    42   1
    44     8    43   1
    45     8    44   1
    46    10    45   1
    47    11    46   1
    48    12    47   1
    49    13    48   1
    50    21    49   1
    51    21    50   1
    52    22    51   1
    53    22    52   1
    54    23    53   1
    55    23    54   1
    56    24    55   1
    57    24    56   1
    58    25    57   1
    59    25    58   1
    60    26    59   1
    61    29    60   1
    62    30    61   1
    63    33    62   1
    64    33    63   1
    65    36    64   1
    66    36    65   1
    67    37    66   1
    68    37    67   1
@<TRIPOS>SUBSTRUCTURE
     1  ACE      1

