@<TRIPOS>MOLECULE
3s8o_ligand_032
    67    68
SMALL
GAST_HUCK
****
This file was generated by PARSER (from files_GN.cpp)

@<TRIPOS>ATOM
      1 C          10.1479   -9.5451   -7.4324 C.2         1 ACE       0.1753
      2 O          11.3696   -9.5806   -7.5230 O.2         1 ACE      -0.3972
      3 CH3         9.4815   -8.3103   -7.7824 C.3         1 ACE       0.0258
      4 N           9.4447  -10.6083   -7.0552 N.am        1 ACE      -0.2628
      5 CA          9.9389  -11.9165   -6.6899 C.3         1 ACE       0.1465
      6 C          10.6932  -11.9513   -5.4220 C.2         1 ACE       0.2045
      7 O          11.0945  -13.0417   -5.0255 O.2         1 ACE      -0.3944
      8 CB         10.6797  -12.5938   -7.9004 C.3         1 ACE       0.0400
      9 CG          9.8348  -12.9096   -9.0993 C.ar        1 ACE      -0.0004
     10 CD1         9.0654  -11.9032   -9.7404 C.ar        1 ACE      -0.0239
     11 CD2         9.8467  -14.2039   -9.6807 C.ar        1 ACE      -0.0239
     12 CE1         8.2811  -12.1964  -10.8718 C.ar        1 ACE       0.0115
     13 CE2         9.0770  -14.4935  -10.8279 C.ar        1 ACE       0.0115
     14 CZ          8.2606  -13.4981  -11.4086 C.ar        1 ACE       0.1728
     15 OH          7.5208  -13.7352  -12.5358 O.3         1 ACE      -0.2040
     16 P           6.0765  -14.2261  -12.2572 P.3         1 ACE       0.1348
     17 O1P         5.2661  -13.7832  -13.3703 O.co2       1 ACE      -0.6653
     18 O2P         6.0124  -15.6744  -12.2660 O.co2       1 ACE      -0.6653
     19 O3P         5.4416  -13.7117  -11.0648 O.co2       1 ACE      -0.6653
     20 O          13.3566  -11.9548   -4.0806 O.2         1 ACE      -0.3419
     21 CD          9.2327   -9.8556   -1.5717 C.3         1 ACE      -0.0532
     22 CG          9.5444  -11.3356   -1.9052 C.3         1 ACE      -0.0516
     23 CE          9.7541   -8.8835   -2.6644 C.3         1 ACE      -0.0516
     24 CB         11.0445  -11.5465   -2.2346 C.3         1 ACE      -0.0199
     25 CH         11.2476   -9.1452   -2.9975 C.3         1 ACE      -0.0199
     26 N          10.8478  -10.8640   -4.6587 N.am        1 ACE      -0.2738
     27 C          13.0021  -10.8735   -3.6271 C.2         1 ACE       0.2267
     28 CA         11.5589  -10.6378   -3.4091 C.3         1 ACE       0.1331
     29 N          13.9479  -10.0036   -3.2596 N.am        1 ACE      -0.2608
     30 CA         15.3808  -10.1028   -3.3803 C.3         1 ACE       0.1474
     31 C          15.8492   -9.6342   -4.6866 C.2         1 ACE       0.2017
     32 O          16.8676   -8.9594   -4.7610 O.2         1 ACE      -0.3945
     33 CB         16.0301  -11.4726   -2.9863 C.3         1 ACE       0.0774
     34 CG         15.6226  -11.9706   -1.6785 C.2         1 ACE       0.1781
     35 OD1        14.4426  -12.1416   -1.4135 O.2         1 ACE      -0.3970
     36 ND2        16.4989  -12.3145   -0.7604 N.am        1 ACE      -0.3007
     37 N          15.2599   -9.9431   -5.8225 N.am        1 ACE      -0.2988
     38 H1          8.4031   -8.3730   -7.6112 H           1 ACE       0.0467
     39 H2          9.6505   -8.0869   -8.8404 H           1 ACE       0.0467
     40 H3          9.8838   -7.4879   -7.1817 H           1 ACE       0.0467
     41 H4          8.4814  -10.4915   -7.0246 H           1 ACE       0.1885
     42 H5          9.0536  -12.5299   -6.5043 H           1 ACE       0.0840
     43 H6         11.1509  -13.5193   -7.5490 H           1 ACE       0.0584
     44 H7         11.4883  -11.9481   -8.2430 H           1 ACE       0.0584
     45 H8          9.0798  -10.9354   -9.3964 H           1 ACE       0.0703
     46 H9         10.4250  -14.9479   -9.2828 H           1 ACE       0.0703
     47 H10         7.7335  -11.4481  -11.3112 H           1 ACE       0.0736
     48 H11         9.1088  -15.4288  -11.2396 H           1 ACE       0.0736
     49 H12         9.6971   -9.6001   -0.6143 H           1 ACE       0.0265
     50 H13         8.1526   -9.7285   -1.4614 H           1 ACE       0.0265
     51 H14         8.9382  -11.6580   -2.7537 H           1 ACE       0.0265
     52 H15         9.2787  -11.9559   -1.0473 H           1 ACE       0.0265
     53 H16         9.6410   -7.8552   -2.3071 H           1 ACE       0.0265
     54 H17         9.1533   -8.9830   -3.5709 H           1 ACE       0.0265
     55 H18        11.1983  -12.6005   -2.4679 H           1 ACE       0.0277
     56 H19        11.6274  -11.3352   -1.3280 H           1 ACE       0.0277
     57 H20        11.8156   -8.8707   -2.1031 H           1 ACE       0.0277
     58 H21        11.5518   -8.4657   -3.8010 H           1 ACE       0.0277
     59 H22        10.4144  -10.0713   -4.9979 H           1 ACE       0.1839
     60 H23        13.6404   -9.1891   -2.8357 H           1 ACE       0.1891
     61 H24        15.7545   -9.3825   -2.6395 H           1 ACE       0.0828
     62 H25        17.1222  -11.3484   -3.0008 H           1 ACE       0.0551
     63 H26        15.7966  -12.2359   -3.7317 H           1 ACE       0.0551
     64 H27        16.1996  -12.6792    0.0897 H           1 ACE       0.1814
     65 H28        17.4480  -12.2264   -0.9395 H           1 ACE       0.1814
     66 H29        15.6315   -9.6182   -6.6585 H           1 ACE       0.1815
     67 H30        14.4547  -10.4835   -5.8380 H           1 ACE       0.1815
@<TRIPOS>BOND
     1     1     2   2
     2     1     3   1
     3     4     1  am
     4     5     4   1
     5     6     5   1
     6     5     8   1
     7     6     7   2
     8    26     6  am
     9     8     9   1
    10     9    10  ar
    11     9    11  ar
    12    10    12  ar
    13    11    13  ar
    14    12    14  ar
    15    13    14  ar
    16    14    15   1
    17    15    16   1
    18    16    17  ar
    19    16    18  ar
    20    16    19  ar
    21    27    20   2
    22    22    21   1
    23    23    21   1
    24    24    22   1
    25    25    23   1
    26    28    24   1
    27    28    25   1
    28    28    26   1
    29    27    28   1
    30    27    29  am
    31    29    30   1
    32    30    31   1
    33    30    33   1
    34    31    32   2
    35    31    37  am
    36    33    34   1
    37    34    35   2
    38    34    36  am
    39     3    38   1
    40     3    39   1
    41     3    40   1
    42     4    41   1
    43     5    42   1
    44     8    43   1
    45     8    44   1
    46    10    45   1
    47    11    46   1
    48    12    47   1
    49    13    48   1
    50    21    49   1
    51    21    50   1
    52    22    51   1
    53    22    52   1
    54    23    53   1
    55    23    54   1
    56    24    55   1
    57    24    56   1
    58    25    57   1
    59    25    58   1
    60    26    59   1
    61    29    60   1
    62    30    61   1
    63    33    62   1
    64    33    63   1
    65    36    64   1
    66    36    65   1
    67    37    66   1
    68    37    67   1
@<TRIPOS>SUBSTRUCTURE
     1  ACE      1

