@<TRIPOS>MOLECULE
3s8o_ligand_006
    67    68
SMALL
GAST_HUCK
****
This file was generated by PARSER (from files_GN.cpp)

@<TRIPOS>ATOM
      1 C           5.9482   -8.6758   -1.4593 C.2         1 ACE       0.1753
      2 O           6.7824   -9.0312   -2.2845 O.2         1 ACE      -0.3972
      3 CH3         4.5775   -9.1096   -1.6238 C.3         1 ACE       0.0258
      4 N           6.2889   -7.9305   -0.4189 N.am        1 ACE      -0.2628
      5 CA          7.6058   -7.4587   -0.0918 C.3         1 ACE       0.1465
      6 C           7.5337   -6.9558    1.2780 C.2         1 ACE       0.2045
      7 O           7.7687   -5.7780    1.5277 O.2         1 ACE      -0.3944
      8 CB          8.0780   -6.4322   -1.1794 C.3         1 ACE       0.0400
      9 CG          9.5608   -6.2796   -1.2515 C.ar        1 ACE      -0.0004
     10 CD1        10.1713   -5.0106   -1.1212 C.ar        1 ACE      -0.0239
     11 CD2        10.3839   -7.3983   -1.5308 C.ar        1 ACE      -0.0239
     12 CE1        11.5627   -4.8600   -1.2860 C.ar        1 ACE       0.0115
     13 CE2        11.7731   -7.2510   -1.6949 C.ar        1 ACE       0.0115
     14 CZ         12.3673   -5.9720   -1.6107 C.ar        1 ACE       0.1728
     15 OH         13.7176   -5.8243   -1.7884 O.3         1 ACE      -0.2040
     16 P          14.1531   -5.5975   -3.2711 P.3         1 ACE       0.1348
     17 O1P        15.5885   -5.5041   -3.2863 O.co2       1 ACE      -0.6653
     18 O2P        13.8012   -6.6960   -4.1365 O.co2       1 ACE      -0.6653
     19 O3P        13.6498   -4.3631   -3.8183 O.co2       1 ACE      -0.6653
     20 O           7.6577   -5.8970    5.0081 O.2         1 ACE      -0.3419
     21 CD          3.8959   -8.7285    3.6003 C.3         1 ACE      -0.0532
     22 CG          5.1563   -9.6238    3.6219 C.3         1 ACE      -0.0516
     23 CE          4.1711   -7.3605    2.9328 C.3         1 ACE      -0.0516
     24 CB          6.3745   -8.8924    4.2554 C.3         1 ACE      -0.0199
     25 CH          5.3934   -6.6469    3.5777 C.3         1 ACE      -0.0199
     26 N           7.1042   -7.7917    2.2149 N.am        1 ACE      -0.2738
     27 C           7.8303   -6.8882    4.3034 C.2         1 ACE       0.2267
     28 CA          6.7090   -7.5149    3.5797 C.3         1 ACE       0.1331
     29 N           9.0548   -7.3864    4.1556 N.am        1 ACE      -0.2608
     30 CA         10.2732   -6.9178    4.7519 C.3         1 ACE       0.1474
     31 C          11.0460   -6.1159    3.8067 C.2         1 ACE       0.2017
     32 O          11.5335   -5.0494    4.1671 O.2         1 ACE      -0.3945
     33 CB         11.0903   -8.0993    5.3572 C.3         1 ACE       0.0774
     34 CG         11.4449   -9.2183    4.4928 C.2         1 ACE       0.1781
     35 OD1        10.9867   -9.3628    3.3677 O.2         1 ACE      -0.3970
     36 ND2        12.2769  -10.1456    4.9262 N.am        1 ACE      -0.3007
     37 N          11.2557   -6.4725    2.5555 N.am        1 ACE      -0.2988
     38 H1          3.9400   -8.7651   -0.8048 H           1 ACE       0.0467
     39 H2          4.5396  -10.1993   -1.6529 H           1 ACE       0.0467
     40 H3          4.1708   -8.7174   -2.5572 H           1 ACE       0.0467
     41 H4          5.5804   -7.7104    0.2068 H           1 ACE       0.1885
     42 H5          8.2981   -8.3084   -0.0944 H           1 ACE       0.0840
     43 H6          7.5928   -5.4685   -1.0013 H           1 ACE       0.0584
     44 H7          7.7444   -6.7550   -2.1729 H           1 ACE       0.0584
     45 H8          9.6072   -4.1836   -0.9158 H           1 ACE       0.0703
     46 H9          9.9767   -8.3280   -1.6373 H           1 ACE       0.0703
     47 H10        11.9847   -3.9334   -1.1959 H           1 ACE       0.0736
     48 H11        12.3505   -8.0701   -1.9089 H           1 ACE       0.0736
     49 H12         3.5517   -8.5662    4.6261 H           1 ACE       0.0265
     50 H13         3.1006   -9.2448    3.0546 H           1 ACE       0.0265
     51 H14         5.3990   -9.9321    2.6003 H           1 ACE       0.0265
     52 H15         4.9429  -10.5256    4.1939 H           1 ACE       0.0265
     53 H16         3.2881   -6.7224    3.0364 H           1 ACE       0.0265
     54 H17         4.3547   -7.5059    1.8658 H           1 ACE       0.0265
     55 H18         7.2378   -9.5620    4.1870 H           1 ACE       0.0277
     56 H19         6.1717   -8.7363    5.3180 H           1 ACE       0.0277
     57 H20         5.1281   -6.3951    4.6051 H           1 ACE       0.0277
     58 H21         5.5624   -5.7059    3.0523 H           1 ACE       0.0277
     59 H22         7.0100   -8.7120    1.9175 H           1 ACE       0.1839
     60 H23         9.1401   -8.1386    3.5478 H           1 ACE       0.1891
     61 H24        10.0154   -6.2787    5.6026 H           1 ACE       0.0828
     62 H25        10.5122   -8.5141    6.1955 H           1 ACE       0.0551
     63 H26        12.0167   -7.6911    5.7814 H           1 ACE       0.0551
     64 H27        12.4967  -10.9011    4.3516 H           1 ACE       0.1814
     65 H28        12.6791  -10.0716    5.8073 H           1 ACE       0.1814
     66 H29        11.7816   -5.9029    1.9740 H           1 ACE       0.1815
     67 H30        10.8752   -7.2933    2.2057 H           1 ACE       0.1815
@<TRIPOS>BOND
     1     1     2   2
     2     1     3   1
     3     4     1  am
     4     5     4   1
     5     6     5   1
     6     5     8   1
     7     6     7   2
     8    26     6  am
     9     8     9   1
    10     9    10  ar
    11     9    11  ar
    12    10    12  ar
    13    11    13  ar
    14    12    14  ar
    15    13    14  ar
    16    14    15   1
    17    15    16   1
    18    16    17  ar
    19    16    18  ar
    20    16    19  ar
    21    27    20   2
    22    22    21   1
    23    23    21   1
    24    24    22   1
    25    25    23   1
    26    28    24   1
    27    28    25   1
    28    28    26   1
    29    27    28   1
    30    27    29  am
    31    29    30   1
    32    30    31   1
    33    30    33   1
    34    31    32   2
    35    31    37  am
    36    33    34   1
    37    34    35   2
    38    34    36  am
    39     3    38   1
    40     3    39   1
    41     3    40   1
    42     4    41   1
    43     5    42   1
    44     8    43   1
    45     8    44   1
    46    10    45   1
    47    11    46   1
    48    12    47   1
    49    13    48   1
    50    21    49   1
    51    21    50   1
    52    22    51   1
    53    22    52   1
    54    23    53   1
    55    23    54   1
    56    24    55   1
    57    24    56   1
    58    25    57   1
    59    25    58   1
    60    26    59   1
    61    29    60   1
    62    30    61   1
    63    33    62   1
    64    33    63   1
    65    36    64   1
    66    36    65   1
    67    37    66   1
    68    37    67   1
@<TRIPOS>SUBSTRUCTURE
     1  ACE      1

