@<TRIPOS>MOLECULE
3s8o_ligand_081
    67    68
SMALL
GAST_HUCK
****
This file was generated by PARSER (from files_GN.cpp)

@<TRIPOS>ATOM
      1 C           7.0111   -6.9287   -2.0598 C.2         1 ACE       0.1753
      2 O           7.8946   -6.2074   -2.5261 O.2         1 ACE      -0.3972
      3 CH3         5.6366   -6.6090   -2.3739 C.3         1 ACE       0.0258
      4 N           7.2940   -8.0137   -1.3440 N.am        1 ACE      -0.2628
      5 CA          8.5762   -8.5176   -0.9206 C.3         1 ACE       0.1465
      6 C           9.0233   -7.8412    0.2991 C.2         1 ACE       0.2045
      7 O           9.2956   -6.6434    0.2672 O.2         1 ACE      -0.3944
      8 CB          9.6266   -8.5306   -2.0795 C.3         1 ACE       0.0400
      9 CG         10.8293   -9.3985   -1.9271 C.ar        1 ACE      -0.0004
     10 CD1        12.0697   -9.0086   -2.5013 C.ar        1 ACE      -0.0239
     11 CD2        10.7347  -10.7027   -1.3763 C.ar        1 ACE      -0.0239
     12 CE1        13.1551   -9.9084   -2.5658 C.ar        1 ACE       0.0115
     13 CE2        11.8308  -11.5884   -1.4114 C.ar        1 ACE       0.0115
     14 CZ         13.0362  -11.2170   -2.0452 C.ar        1 ACE       0.1728
     15 OH         14.1009  -12.0897   -2.0588 O.3         1 ACE      -0.2040
     16 P          14.5700  -12.4689   -3.4926 P.3         1 ACE       0.1348
     17 O1P        15.4511  -13.6054   -3.3639 O.co2       1 ACE      -0.6653
     18 O2P        13.4976  -12.8604   -4.3798 O.co2       1 ACE      -0.6653
     19 O3P        15.3413  -11.4130   -4.1076 O.co2       1 ACE      -0.6653
     20 O           7.6517   -6.3737    3.6854 O.2         1 ACE      -0.3419
     21 CD         10.8933   -7.9546    5.2963 C.3         1 ACE      -0.0532
     22 CG         10.6444   -6.6773    4.4581 C.3         1 ACE      -0.0516
     23 CE          9.7241   -8.9591    5.1654 C.3         1 ACE      -0.0516
     24 CB         10.2841   -7.0033    2.9773 C.3         1 ACE      -0.0199
     25 CH          9.4224   -9.2811    3.6792 C.3         1 ACE      -0.0199
     26 N           9.0008   -8.5127    1.4502 N.am        1 ACE      -0.2738
     27 C           7.7584   -7.4884    3.1759 C.2         1 ACE       0.2267
     28 CA          9.0872   -8.0179    2.8051 C.3         1 ACE       0.1331
     29 N           6.6695   -8.2234    2.9756 N.am        1 ACE      -0.2608
     30 CA          5.3356   -7.9750    3.4612 C.3         1 ACE       0.1474
     31 C           4.9209   -9.1142    4.2706 C.2         1 ACE       0.2017
     32 O           4.7614  -10.2195    3.7632 O.2         1 ACE      -0.3945
     33 CB          4.3420   -7.6387    2.3081 C.3         1 ACE       0.0774
     34 CG          3.9293   -8.7417    1.4518 C.2         1 ACE       0.1781
     35 OD1         4.6493   -9.1305    0.5511 O.2         1 ACE      -0.3970
     36 ND2         2.7370   -9.2891    1.5616 N.am        1 ACE      -0.3007
     37 N           4.6950   -9.0100    5.5611 N.am        1 ACE      -0.2988
     38 H1          4.9347   -7.2410   -1.8116 H           1 ACE       0.0467
     39 H2          5.4734   -6.7650   -3.4459 H           1 ACE       0.0467
     40 H3          5.4391   -5.5603   -2.1238 H           1 ACE       0.0467
     41 H4          6.5350   -8.5611   -1.0803 H           1 ACE       0.1885
     42 H5          8.3705   -9.5687   -0.6868 H           1 ACE       0.0840
     43 H6          9.9381   -7.5035   -2.2868 H           1 ACE       0.0584
     44 H7          9.1253   -8.8836   -2.9829 H           1 ACE       0.0584
     45 H8         12.1802   -8.0828   -2.9282 H           1 ACE       0.0703
     46 H9          9.8578  -11.0312   -0.9682 H           1 ACE       0.0703
     47 H10        14.0330   -9.6149   -3.0132 H           1 ACE       0.0736
     48 H11        11.7393  -12.5274   -1.0060 H           1 ACE       0.0736
     49 H12        11.0168   -7.6852    6.3487 H           1 ACE       0.0265
     50 H13        11.8195   -8.4313    4.9615 H           1 ACE       0.0265
     51 H14        11.5435   -6.0568    4.4810 H           1 ACE       0.0265
     52 H15         9.8409   -6.1021    4.9231 H           1 ACE       0.0265
     53 H16         8.8290   -8.5502    5.6419 H           1 ACE       0.0265
     54 H17         9.9894   -9.8835    5.6852 H           1 ACE       0.0265
     55 H18        11.1744   -7.4193    2.4952 H           1 ACE       0.0277
     56 H19        10.0582   -6.0596    2.4717 H           1 ACE       0.0277
     57 H20         8.6060  -10.0060    3.6335 H           1 ACE       0.0277
     58 H21        10.3036   -9.7787    3.2649 H           1 ACE       0.0277
     59 H22         8.7409   -9.4486    1.3810 H           1 ACE       0.1839
     60 H23         6.7964   -9.0584    2.4893 H           1 ACE       0.1891
     61 H24         5.3408   -7.0882    4.1075 H           1 ACE       0.0828
     62 H25         4.7939   -6.8758    1.6690 H           1 ACE       0.0551
     63 H26         3.4560   -7.1808    2.7608 H           1 ACE       0.0551
     64 H27         2.4669   -9.9899    0.9461 H           1 ACE       0.1814
     65 H28         2.1101   -8.9743    2.2314 H           1 ACE       0.1814
     66 H29         4.4301   -9.7920    6.0722 H           1 ACE       0.1815
     67 H30         4.7869   -8.1507    6.0062 H           1 ACE       0.1815
@<TRIPOS>BOND
     1     1     2   2
     2     1     3   1
     3     4     1  am
     4     5     4   1
     5     6     5   1
     6     5     8   1
     7     6     7   2
     8    26     6  am
     9     8     9   1
    10     9    10  ar
    11     9    11  ar
    12    10    12  ar
    13    11    13  ar
    14    12    14  ar
    15    13    14  ar
    16    14    15   1
    17    15    16   1
    18    16    17  ar
    19    16    18  ar
    20    16    19  ar
    21    27    20   2
    22    22    21   1
    23    23    21   1
    24    24    22   1
    25    25    23   1
    26    28    24   1
    27    28    25   1
    28    28    26   1
    29    27    28   1
    30    27    29  am
    31    29    30   1
    32    30    31   1
    33    30    33   1
    34    31    32   2
    35    31    37  am
    36    33    34   1
    37    34    35   2
    38    34    36  am
    39     3    38   1
    40     3    39   1
    41     3    40   1
    42     4    41   1
    43     5    42   1
    44     8    43   1
    45     8    44   1
    46    10    45   1
    47    11    46   1
    48    12    47   1
    49    13    48   1
    50    21    49   1
    51    21    50   1
    52    22    51   1
    53    22    52   1
    54    23    53   1
    55    23    54   1
    56    24    55   1
    57    24    56   1
    58    25    57   1
    59    25    58   1
    60    26    59   1
    61    29    60   1
    62    30    61   1
    63    33    62   1
    64    33    63   1
    65    36    64   1
    66    36    65   1
    67    37    66   1
    68    37    67   1
@<TRIPOS>SUBSTRUCTURE
     1  ACE      1

