@<TRIPOS>MOLECULE
3s8o_ligand_073
    67    68
SMALL
GAST_HUCK
****
This file was generated by PARSER (from files_GN.cpp)

@<TRIPOS>ATOM
      1 C           6.5858   -8.9263   -1.2353 C.2         1 ACE       0.1753
      2 O           7.0207   -9.1901   -2.3504 O.2         1 ACE      -0.3972
      3 CH3         5.1559   -8.9781   -1.0219 C.3         1 ACE       0.0258
      4 N           7.3924   -8.5278   -0.2587 N.am        1 ACE      -0.2628
      5 CA          8.8209   -8.3728   -0.3381 C.3         1 ACE       0.1465
      6 C           9.3840   -8.5517    0.9997 C.2         1 ACE       0.2045
      7 O          10.2790   -9.3721    1.1478 O.2         1 ACE      -0.3944
      8 CB          9.2185   -6.9936   -0.9594 C.3         1 ACE       0.0400
      9 CG          8.6651   -6.7688   -2.3259 C.ar        1 ACE      -0.0004
     10 CD1         8.9113   -7.7047   -3.3595 C.ar        1 ACE      -0.0239
     11 CD2         7.8465   -5.6519   -2.6114 C.ar        1 ACE      -0.0239
     12 CE1         8.3228   -7.5443   -4.6271 C.ar        1 ACE       0.0115
     13 CE2         7.2636   -5.4882   -3.8799 C.ar        1 ACE       0.0115
     14 CZ          7.4925   -6.4353   -4.8959 C.ar        1 ACE       0.1728
     15 OH          6.8202   -6.3411   -6.0834 O.3         1 ACE      -0.2040
     16 P           7.5804   -5.5607   -7.1959 P.3         1 ACE       0.1348
     17 O1P         6.7426   -5.5484   -8.3678 O.co2       1 ACE      -0.6653
     18 O2P         7.8321   -4.1868   -6.8398 O.co2       1 ACE      -0.6653
     19 O3P         8.8123   -6.2076   -7.5733 O.co2       1 ACE      -0.6653
     20 O           7.6576   -7.0600    5.0284 O.2         1 ACE      -0.3419
     21 CD         11.4429   -7.3306    5.5161 C.3         1 ACE      -0.0532
     22 CG         10.5811   -6.1471    5.0091 C.3         1 ACE      -0.0516
     23 CE         10.6807   -8.6761    5.4073 C.3         1 ACE      -0.0516
     24 CB         10.0020   -6.4088    3.5898 C.3         1 ACE      -0.0199
     25 CH         10.1890   -8.9135    3.9570 C.3         1 ACE      -0.0199
     26 N           8.9078   -7.8247    2.0131 N.am        1 ACE      -0.2738
     27 C           7.9339   -7.8372    4.1193 C.2         1 ACE       0.2267
     28 CA          9.2396   -7.7760    3.4254 C.3         1 ACE       0.1331
     29 N           7.0139   -8.7212    3.7373 N.am        1 ACE      -0.2608
     30 CA          5.6395   -8.8543    4.1643 C.3         1 ACE       0.1474
     31 C           4.7290   -8.1457    3.2686 C.2         1 ACE       0.2017
     32 O           4.9866   -7.0207    2.8603 O.2         1 ACE      -0.3945
     33 CB          5.3763   -8.6352    5.7018 C.3         1 ACE       0.0774
     34 CG          4.6895   -7.4246    6.1242 C.2         1 ACE       0.1781
     35 OD1         3.5734   -7.1606    5.6790 O.2         1 ACE      -0.3970
     36 ND2         5.1628   -6.6229    7.0530 N.am        1 ACE      -0.3007
     37 N           3.5626   -8.6523    2.9325 N.am        1 ACE      -0.2988
     38 H1          4.8884   -8.7890    0.0237 H           1 ACE       0.0467
     39 H2          4.7759   -9.9639   -1.3037 H           1 ACE       0.0467
     40 H3          4.6761   -8.2200   -1.6453 H           1 ACE       0.0467
     41 H4          6.9664   -8.2488    0.5693 H           1 ACE       0.1885
     42 H5          9.2345   -9.1544   -0.9893 H           1 ACE       0.0840
     43 H6         10.3075   -6.9270   -1.0217 H           1 ACE       0.0584
     44 H7          8.8900   -6.1939   -0.2884 H           1 ACE       0.0584
     45 H8          9.5125   -8.5124   -3.1958 H           1 ACE       0.0703
     46 H9          7.6568   -4.9495   -1.8875 H           1 ACE       0.0703
     47 H10         8.4999   -8.2398   -5.3582 H           1 ACE       0.0736
     48 H11         6.6572   -4.6825   -4.0593 H           1 ACE       0.0736
     49 H12        11.7229   -7.1585    6.5569 H           1 ACE       0.0265
     50 H13        12.3643   -7.3839    4.9269 H           1 ACE       0.0265
     51 H14        11.1936   -5.2405    4.9839 H           1 ACE       0.0265
     52 H15         9.7676   -5.9727    5.7138 H           1 ACE       0.0265
     53 H16         9.8287   -8.6778    6.0912 H           1 ACE       0.0265
     54 H17        11.3464   -9.4923    5.7002 H           1 ACE       0.0265
     55 H18        10.8416   -6.3806    2.8842 H           1 ACE       0.0277
     56 H19         9.3416   -5.5764    3.3251 H           1 ACE       0.0277
     57 H20         9.6932   -9.8873    3.8989 H           1 ACE       0.0277
     58 H21        11.0873   -8.9682    3.3379 H           1 ACE       0.0277
     59 H22         8.2269   -7.1824    1.7555 H           1 ACE       0.1839
     60 H23         7.2900   -9.3382    3.0358 H           1 ACE       0.1891
     61 H24         5.4519   -9.9217    3.9985 H           1 ACE       0.0828
     62 H25         6.3283   -8.7097    6.2273 H           1 ACE       0.0551
     63 H26         4.7634   -9.4669    6.0681 H           1 ACE       0.0551
     64 H27         4.6298   -5.8794    7.3679 H           1 ACE       0.1814
     65 H28         6.0306   -6.7967    7.4485 H           1 ACE       0.1814
     66 H29         2.9566   -8.1510    2.3637 H           1 ACE       0.1815
     67 H30         3.2880   -9.5159    3.2825 H           1 ACE       0.1815
@<TRIPOS>BOND
     1     1     2   2
     2     1     3   1
     3     4     1  am
     4     5     4   1
     5     6     5   1
     6     5     8   1
     7     6     7   2
     8    26     6  am
     9     8     9   1
    10     9    10  ar
    11     9    11  ar
    12    10    12  ar
    13    11    13  ar
    14    12    14  ar
    15    13    14  ar
    16    14    15   1
    17    15    16   1
    18    16    17  ar
    19    16    18  ar
    20    16    19  ar
    21    27    20   2
    22    22    21   1
    23    23    21   1
    24    24    22   1
    25    25    23   1
    26    28    24   1
    27    28    25   1
    28    28    26   1
    29    27    28   1
    30    27    29  am
    31    29    30   1
    32    30    31   1
    33    30    33   1
    34    31    32   2
    35    31    37  am
    36    33    34   1
    37    34    35   2
    38    34    36  am
    39     3    38   1
    40     3    39   1
    41     3    40   1
    42     4    41   1
    43     5    42   1
    44     8    43   1
    45     8    44   1
    46    10    45   1
    47    11    46   1
    48    12    47   1
    49    13    48   1
    50    21    49   1
    51    21    50   1
    52    22    51   1
    53    22    52   1
    54    23    53   1
    55    23    54   1
    56    24    55   1
    57    24    56   1
    58    25    57   1
    59    25    58   1
    60    26    59   1
    61    29    60   1
    62    30    61   1
    63    33    62   1
    64    33    63   1
    65    36    64   1
    66    36    65   1
    67    37    66   1
    68    37    67   1
@<TRIPOS>SUBSTRUCTURE
     1  ACE      1

