@<TRIPOS>MOLECULE
3s8o_ligand_024
    67    68
SMALL
GAST_HUCK
****
This file was generated by PARSER (from files_GN.cpp)

@<TRIPOS>ATOM
      1 C          10.8924   -6.6096   -0.7079 C.2         1 ACE       0.1753
      2 O          10.2656   -6.4190   -1.7420 O.2         1 ACE      -0.3972
      3 CH3        11.9538   -5.6859   -0.3784 C.3         1 ACE       0.0258
      4 N          10.6569   -7.6624    0.0669 N.am        1 ACE      -0.2628
      5 CA          9.6823   -8.7066   -0.1254 C.3         1 ACE       0.1465
      6 C           9.8085   -9.3228   -1.4505 C.2         1 ACE       0.2045
      7 O           8.8333   -9.4457   -2.1819 O.2         1 ACE      -0.3944
      8 CB          8.2410   -8.2374    0.2656 C.3         1 ACE       0.0400
      9 CG          7.9880   -7.9606    1.7136 C.ar        1 ACE      -0.0004
     10 CD1         7.0179   -6.9952    2.0811 C.ar        1 ACE      -0.0239
     11 CD2         8.5903   -8.7253    2.7422 C.ar        1 ACE      -0.0239
     12 CE1         6.6619   -6.8032    3.4295 C.ar        1 ACE       0.0115
     13 CE2         8.2457   -8.5222    4.0917 C.ar        1 ACE       0.0115
     14 CZ          7.2590   -7.5835    4.4446 C.ar        1 ACE       0.1728
     15 OH          6.9547   -7.4102    5.7704 O.3         1 ACE      -0.2040
     16 P           5.5059   -7.8196    6.1766 P.3         1 ACE       0.1348
     17 O1P         5.4685   -8.0012    7.6058 O.co2       1 ACE      -0.6653
     18 O2P         4.5723   -6.7608    5.8755 O.co2       1 ACE      -0.6653
     19 O3P         5.0328   -9.0422    5.5692 O.co2       1 ACE      -0.6653
     20 O          13.6742   -9.5099   -2.7179 O.2         1 ACE      -0.3419
     21 CD         10.9000  -10.9801   -5.9980 C.3         1 ACE      -0.0532
     22 CG         11.6610   -9.6795   -5.6433 C.3         1 ACE      -0.0516
     23 CE         11.0791  -12.0695   -4.9109 C.3         1 ACE      -0.0516
     24 CB         11.2965   -9.1729   -4.2241 C.3         1 ACE      -0.0199
     25 CH         10.7050  -11.5428   -3.4962 C.3         1 ACE      -0.0199
     26 N          11.0197   -9.7241   -1.8272 N.am        1 ACE      -0.2738
     27 C          12.9493  -10.4932   -2.8501 C.2         1 ACE       0.2267
     28 CA         11.5016  -10.2495   -3.0891 C.3         1 ACE       0.1331
     29 N          13.4844  -11.7013   -2.6872 N.am        1 ACE      -0.2608
     30 CA         14.8566  -12.1149   -2.4711 C.3         1 ACE       0.1474
     31 C          15.4454  -11.6574   -1.2143 C.2         1 ACE       0.2017
     32 O          15.7610  -10.4879   -1.0503 O.2         1 ACE      -0.3945
     33 CB         15.8097  -11.9265   -3.7001 C.3         1 ACE       0.0774
     34 CG         15.4982  -10.8350   -4.6012 C.2         1 ACE       0.1781
     35 OD1        15.7906   -9.6828   -4.3132 O.2         1 ACE      -0.3970
     36 ND2        14.9529  -11.0663   -5.7766 N.am        1 ACE      -0.3007
     37 N          15.7475  -12.5052   -0.2515 N.am        1 ACE      -0.2988
     38 H1         12.3954   -5.9078    0.5942 H           1 ACE       0.0467
     39 H2         11.5636   -4.6687   -0.3477 H           1 ACE       0.0467
     40 H3         12.7401   -5.7395   -1.1325 H           1 ACE       0.0467
     41 H4         11.2357   -7.7584    0.8402 H           1 ACE       0.1885
     42 H5          9.9486   -9.5021    0.5836 H           1 ACE       0.0840
     43 H6          7.5299   -9.0109   -0.0270 H           1 ACE       0.0584
     44 H7          7.9977   -7.3592   -0.3416 H           1 ACE       0.0584
     45 H8          6.5378   -6.4417    1.3669 H           1 ACE       0.0703
     46 H9          9.2855   -9.4452    2.5166 H           1 ACE       0.0703
     47 H10         5.9553   -6.1074    3.6703 H           1 ACE       0.0736
     48 H11         8.7106   -9.0731    4.8170 H           1 ACE       0.0736
     49 H12        11.2567  -11.3640   -6.9549 H           1 ACE       0.0265
     50 H13         9.8369  -10.7553   -6.1095 H           1 ACE       0.0265
     51 H14        11.4103   -8.9081   -6.3771 H           1 ACE       0.0265
     52 H15        12.7362   -9.8563   -5.7013 H           1 ACE       0.0265
     53 H16        12.1154  -12.4202   -4.9216 H           1 ACE       0.0265
     54 H17        10.4455  -12.9235   -5.1596 H           1 ACE       0.0265
     55 H18        10.2527   -8.8620   -4.2627 H           1 ACE       0.0277
     56 H19        11.8758   -8.2699   -4.0100 H           1 ACE       0.0277
     57 H20        10.8521  -12.3341   -2.7590 H           1 ACE       0.0277
     58 H21         9.6330  -11.3285   -3.5018 H           1 ACE       0.0277
     59 H22        11.6986   -9.5966   -1.1494 H           1 ACE       0.1839
     60 H23        12.8693  -12.4456   -2.7306 H           1 ACE       0.1891
     61 H24        14.7632  -13.2011   -2.3745 H           1 ACE       0.0828
     62 H25        15.8083  -12.8591   -4.2759 H           1 ACE       0.0551
     63 H26        16.8448  -11.7992   -3.3641 H           1 ACE       0.0551
     64 H27        14.7831  -10.3378   -6.3907 H           1 ACE       0.1814
     65 H28        14.7174  -11.9750   -6.0297 H           1 ACE       0.1814
     66 H29        16.1598  -12.1910    0.5685 H           1 ACE       0.1815
     67 H30        15.5675  -13.4528   -0.3646 H           1 ACE       0.1815
@<TRIPOS>BOND
     1     1     2   2
     2     1     3   1
     3     4     1  am
     4     5     4   1
     5     6     5   1
     6     5     8   1
     7     6     7   2
     8    26     6  am
     9     8     9   1
    10     9    10  ar
    11     9    11  ar
    12    10    12  ar
    13    11    13  ar
    14    12    14  ar
    15    13    14  ar
    16    14    15   1
    17    15    16   1
    18    16    17  ar
    19    16    18  ar
    20    16    19  ar
    21    27    20   2
    22    22    21   1
    23    23    21   1
    24    24    22   1
    25    25    23   1
    26    28    24   1
    27    28    25   1
    28    28    26   1
    29    27    28   1
    30    27    29  am
    31    29    30   1
    32    30    31   1
    33    30    33   1
    34    31    32   2
    35    31    37  am
    36    33    34   1
    37    34    35   2
    38    34    36  am
    39     3    38   1
    40     3    39   1
    41     3    40   1
    42     4    41   1
    43     5    42   1
    44     8    43   1
    45     8    44   1
    46    10    45   1
    47    11    46   1
    48    12    47   1
    49    13    48   1
    50    21    49   1
    51    21    50   1
    52    22    51   1
    53    22    52   1
    54    23    53   1
    55    23    54   1
    56    24    55   1
    57    24    56   1
    58    25    57   1
    59    25    58   1
    60    26    59   1
    61    29    60   1
    62    30    61   1
    63    33    62   1
    64    33    63   1
    65    36    64   1
    66    36    65   1
    67    37    66   1
    68    37    67   1
@<TRIPOS>SUBSTRUCTURE
     1  ACE      1

