@<TRIPOS>MOLECULE
3s8o_ligand_061
    67    68
SMALL
GAST_HUCK
****
This file was generated by PARSER (from files_GN.cpp)

@<TRIPOS>ATOM
      1 C          10.1429   -8.5206    2.7962 C.2         1 ACE       0.1753
      2 O          11.0393   -7.7041    2.9579 O.2         1 ACE      -0.3972
      3 CH3         9.9070   -9.4892    3.8394 C.3         1 ACE       0.0258
      4 N           9.3721   -8.5195    1.7171 N.am        1 ACE      -0.2628
      5 CA          9.4113   -7.5643    0.6460 C.3         1 ACE       0.1465
      6 C           8.0996   -7.5289    0.0076 C.2         1 ACE       0.2045
      7 O           7.6410   -8.5611   -0.4654 O.2         1 ACE      -0.3944
      8 CB         10.6035   -7.8138   -0.3399 C.3         1 ACE       0.0400
      9 CG         10.4514   -8.8973   -1.3592 C.ar        1 ACE      -0.0004
     10 CD1        10.2651  -10.2472   -0.9825 C.ar        1 ACE      -0.0239
     11 CD2        10.5034   -8.5945   -2.7421 C.ar        1 ACE      -0.0239
     12 CE1        10.1460  -11.2611   -1.9513 C.ar        1 ACE       0.0115
     13 CE2        10.3739   -9.6041   -3.7084 C.ar        1 ACE       0.0115
     14 CZ         10.2398  -10.9609   -3.3289 C.ar        1 ACE       0.1728
     15 OH         10.1122  -12.0175   -4.2080 O.3         1 ACE      -0.2040
     16 P          11.0997  -12.0965   -5.4188 P.3         1 ACE       0.1348
     17 O1P        10.5570  -11.3748   -6.5407 O.co2       1 ACE      -0.6653
     18 O2P        12.4460  -11.6543   -5.1452 O.co2       1 ACE      -0.6653
     19 O3P        11.1742  -13.4710   -5.8403 O.co2       1 ACE      -0.6653
     20 O           4.2700   -7.7462   -0.3782 O.2         1 ACE      -0.3419
     21 CD          4.5250   -4.4364   -2.5148 C.3         1 ACE      -0.0532
     22 CG          4.8551   -5.9111   -2.8567 C.3         1 ACE      -0.0516
     23 CE          4.3904   -4.2293   -0.9867 C.3         1 ACE      -0.0516
     24 CB          6.0860   -6.4335   -2.0606 C.3         1 ACE      -0.0199
     25 CH          5.6684   -4.7008   -0.2387 C.3         1 ACE      -0.0199
     26 N           7.3662   -6.4137    0.0291 N.am        1 ACE      -0.2738
     27 C           5.0866   -7.0740    0.2353 C.2         1 ACE       0.2267
     28 CA          6.0328   -6.2071   -0.4990 C.3         1 ACE       0.1331
     29 N           5.1531   -7.1552    1.5691 N.am        1 ACE      -0.2608
     30 CA          4.3947   -7.9624    2.4957 C.3         1 ACE       0.1474
     31 C           4.4475   -9.3906    2.1934 C.2         1 ACE       0.2017
     32 O           3.8526   -9.8500    1.2266 O.2         1 ACE      -0.3945
     33 CB          2.9533   -7.4403    2.8328 C.3         1 ACE       0.0774
     34 CG          2.2871   -6.6707    1.7965 C.2         1 ACE       0.1781
     35 OD1         1.6880   -7.2295    0.8888 O.2         1 ACE      -0.3970
     36 ND2         2.3099   -5.3554    1.8122 N.am        1 ACE      -0.3007
     37 N           5.0810  -10.2506    2.9676 N.am        1 ACE      -0.2988
     38 H1          9.0572  -10.1296    3.6009 H           1 ACE       0.0467
     39 H2          9.6939   -8.9736    4.7772 H           1 ACE       0.0467
     40 H3         10.7907  -10.1155    3.9683 H           1 ACE       0.0467
     41 H4          8.6809   -9.1996    1.6728 H           1 ACE       0.1885
     42 H5          9.5895   -6.5815    1.0992 H           1 ACE       0.0840
     43 H6         11.5042   -8.0302    0.2387 H           1 ACE       0.0584
     44 H7         10.8014   -6.8605   -0.8430 H           1 ACE       0.0584
     45 H8         10.2094  -10.5056    0.0040 H           1 ACE       0.0703
     46 H9         10.6362   -7.6299   -3.0562 H           1 ACE       0.0703
     47 H10         9.9910  -12.2286   -1.6565 H           1 ACE       0.0736
     48 H11        10.3905   -9.3493   -4.6981 H           1 ACE       0.0736
     49 H12         3.5869   -4.1504   -3.0016 H           1 ACE       0.0265
     50 H13         5.3132   -3.7840   -2.9043 H           1 ACE       0.0265
     51 H14         5.0564   -5.9855   -3.9299 H           1 ACE       0.0265
     52 H15         3.9793   -6.5309   -2.6474 H           1 ACE       0.0265
     53 H16         3.5262   -4.7870   -0.6246 H           1 ACE       0.0265
     54 H17         4.2212   -3.1723   -0.7809 H           1 ACE       0.0265
     55 H18         6.9692   -5.9260   -2.4681 H           1 ACE       0.0277
     56 H19         6.2102   -7.4960   -2.2823 H           1 ACE       0.0277
     57 H20         5.5355   -4.5184    0.8309 H           1 ACE       0.0277
     58 H21         6.4973   -4.0626   -0.5662 H           1 ACE       0.0277
     59 H22         7.7750   -5.6480    0.4624 H           1 ACE       0.1839
     60 H23         5.8483   -6.6182    1.9786 H           1 ACE       0.1891
     61 H24         4.9537   -7.8370    3.4310 H           1 ACE       0.0828
     62 H25         3.0127   -6.8101    3.7256 H           1 ACE       0.0551
     63 H26         2.2970   -8.2729    3.1162 H           1 ACE       0.0551
     64 H27         1.8631   -4.8494    1.1134 H           1 ACE       0.1814
     65 H28         2.7808   -4.8832    2.5190 H           1 ACE       0.1814
     66 H29         5.0948  -11.1933    2.7445 H           1 ACE       0.1815
     67 H30         5.5332   -9.9414    3.7683 H           1 ACE       0.1815
@<TRIPOS>BOND
     1     1     2   2
     2     1     3   1
     3     4     1  am
     4     5     4   1
     5     6     5   1
     6     5     8   1
     7     6     7   2
     8    26     6  am
     9     8     9   1
    10     9    10  ar
    11     9    11  ar
    12    10    12  ar
    13    11    13  ar
    14    12    14  ar
    15    13    14  ar
    16    14    15   1
    17    15    16   1
    18    16    17  ar
    19    16    18  ar
    20    16    19  ar
    21    27    20   2
    22    22    21   1
    23    23    21   1
    24    24    22   1
    25    25    23   1
    26    28    24   1
    27    28    25   1
    28    28    26   1
    29    27    28   1
    30    27    29  am
    31    29    30   1
    32    30    31   1
    33    30    33   1
    34    31    32   2
    35    31    37  am
    36    33    34   1
    37    34    35   2
    38    34    36  am
    39     3    38   1
    40     3    39   1
    41     3    40   1
    42     4    41   1
    43     5    42   1
    44     8    43   1
    45     8    44   1
    46    10    45   1
    47    11    46   1
    48    12    47   1
    49    13    48   1
    50    21    49   1
    51    21    50   1
    52    22    51   1
    53    22    52   1
    54    23    53   1
    55    23    54   1
    56    24    55   1
    57    24    56   1
    58    25    57   1
    59    25    58   1
    60    26    59   1
    61    29    60   1
    62    30    61   1
    63    33    62   1
    64    33    63   1
    65    36    64   1
    66    36    65   1
    67    37    66   1
    68    37    67   1
@<TRIPOS>SUBSTRUCTURE
     1  ACE      1

