@<TRIPOS>MOLECULE
3s8o_ligand_043
    67    68
SMALL
GAST_HUCK
****
This file was generated by PARSER (from files_GN.cpp)

@<TRIPOS>ATOM
      1 C           6.2912   -7.1653    5.3944 C.2         1 ACE       0.1753
      2 O           6.7782   -8.1663    5.9041 O.2         1 ACE      -0.3972
      3 CH3         5.9114   -6.0720    6.2601 C.3         1 ACE       0.0258
      4 N           6.0443   -7.0899    4.0919 N.am        1 ACE      -0.2628
      5 CA          6.1606   -8.1484    3.1210 C.3         1 ACE       0.1465
      6 C           6.3741   -7.5994    1.7761 C.2         1 ACE       0.2045
      7 O           5.8406   -6.5393    1.4794 O.2         1 ACE      -0.3944
      8 CB          4.9641   -9.1544    3.2136 C.3         1 ACE       0.0400
      9 CG          3.5818   -8.6057    3.0331 C.ar        1 ACE      -0.0004
     10 CD1         3.0405   -7.6670    3.9450 C.ar        1 ACE      -0.0239
     11 CD2         2.7515   -9.0474    1.9753 C.ar        1 ACE      -0.0239
     12 CE1         1.7536   -7.1324    3.7633 C.ar        1 ACE       0.0115
     13 CE2         1.4540   -8.5270    1.7997 C.ar        1 ACE       0.0115
     14 CZ          0.9387   -7.5742    2.7007 C.ar        1 ACE       0.1728
     15 OH         -0.3063   -7.0348    2.4977 O.3         1 ACE      -0.2040
     16 P          -1.4116   -7.6412    3.4147 P.3         1 ACE       0.1348
     17 O1P        -1.6014   -9.0558    3.2133 O.co2       1 ACE      -0.6653
     18 O2P        -1.1750   -7.3701    4.8125 O.co2       1 ACE      -0.6653
     19 O3P        -2.6548   -7.0069    3.0631 O.co2       1 ACE      -0.6653
     20 O           6.8858   -8.6299   -2.3458 O.2         1 ACE      -0.3419
     21 CD         10.7336   -7.4125    0.4875 C.3         1 ACE      -0.0532
     22 CG         10.1208   -8.8309    0.3910 C.3         1 ACE      -0.0516
     23 CE          9.6514   -6.3409    0.7723 C.3         1 ACE      -0.0516
     24 CB          8.9437   -8.8691   -0.6197 C.3         1 ACE      -0.0199
     25 CH          8.4867   -6.4082   -0.2542 C.3         1 ACE      -0.0199
     26 N           7.2241   -8.2097    0.9501 N.am        1 ACE      -0.2738
     27 C           6.7810   -7.8482   -1.4045 C.2         1 ACE       0.2267
     28 CA          7.7984   -7.8196   -0.3280 C.3         1 ACE       0.1331
     29 N           5.7320   -7.0328   -1.3621 N.am        1 ACE      -0.2608
     30 CA          4.6033   -6.9836   -2.2524 C.3         1 ACE       0.1474
     31 C           4.4206   -5.5935   -2.6626 C.2         1 ACE       0.2017
     32 O           4.5583   -5.2617   -3.8325 O.2         1 ACE      -0.3945
     33 CB          3.3462   -7.5724   -1.5350 C.3         1 ACE       0.0774
     34 CG          3.3875   -9.0095   -1.3009 C.2         1 ACE       0.1781
     35 OD1         4.3485   -9.5360   -0.7574 O.2         1 ACE      -0.3970
     36 ND2         2.3392   -9.7722   -1.5315 N.am        1 ACE      -0.3007
     37 N           4.1233   -4.6447   -1.8009 N.am        1 ACE      -0.2988
     38 H1          5.4490   -5.2568    5.6995 H           1 ACE       0.0467
     39 H2          6.7880   -5.6802    6.7759 H           1 ACE       0.0467
     40 H3          5.1913   -6.4245    7.0010 H           1 ACE       0.0467
     41 H4          5.6390   -6.2628    3.7838 H           1 ACE       0.1885
     42 H5          7.0628   -8.7151    3.3850 H           1 ACE       0.0840
     43 H6          4.9969   -9.6330    4.1969 H           1 ACE       0.0584
     44 H7          5.1515   -9.9499    2.4852 H           1 ACE       0.0584
     45 H8          3.5703   -7.3716    4.7649 H           1 ACE       0.0703
     46 H9          3.0793   -9.7664    1.3280 H           1 ACE       0.0703
     47 H10         1.4011   -6.4296    4.4173 H           1 ACE       0.0736
     48 H11         0.8799   -8.8490    1.0164 H           1 ACE       0.0736
     49 H12        11.2405   -7.1752   -0.4526 H           1 ACE       0.0265
     50 H13        11.4818   -7.3958    1.2839 H           1 ACE       0.0265
     51 H14         9.7762   -9.1481    1.3783 H           1 ACE       0.0265
     52 H15        10.8923   -9.5339    0.0680 H           1 ACE       0.0265
     53 H16        10.1115   -5.3494    0.7310 H           1 ACE       0.0265
     54 H17         9.2582   -6.4816    1.7830 H           1 ACE       0.0265
     55 H18         8.5296   -9.8835   -0.6244 H           1 ACE       0.0277
     56 H19         9.3615   -8.6920   -1.6179 H           1 ACE       0.0277
     57 H20         8.8854   -6.1448   -1.2396 H           1 ACE       0.0277
     58 H21         7.7576   -5.6394    0.0085 H           1 ACE       0.0277
     59 H22         7.5588   -9.0511    1.2904 H           1 ACE       0.1839
     60 H23         5.6943   -6.4264   -0.6092 H           1 ACE       0.1891
     61 H24         4.7893   -7.5804   -3.1530 H           1 ACE       0.0828
     62 H25         2.4596   -7.3318   -2.1287 H           1 ACE       0.0551
     63 H26         3.2248   -7.0855   -0.5644 H           1 ACE       0.0551
     64 H27         2.3641  -10.7198   -1.3168 H           1 ACE       0.1814
     65 H28         1.5205   -9.3846   -1.8840 H           1 ACE       0.1814
     66 H29         4.0240   -3.7283   -2.1042 H           1 ACE       0.1815
     67 H30         4.0107   -4.8574   -0.8611 H           1 ACE       0.1815
@<TRIPOS>BOND
     1     1     2   2
     2     1     3   1
     3     4     1  am
     4     5     4   1
     5     6     5   1
     6     5     8   1
     7     6     7   2
     8    26     6  am
     9     8     9   1
    10     9    10  ar
    11     9    11  ar
    12    10    12  ar
    13    11    13  ar
    14    12    14  ar
    15    13    14  ar
    16    14    15   1
    17    15    16   1
    18    16    17  ar
    19    16    18  ar
    20    16    19  ar
    21    27    20   2
    22    22    21   1
    23    23    21   1
    24    24    22   1
    25    25    23   1
    26    28    24   1
    27    28    25   1
    28    28    26   1
    29    27    28   1
    30    27    29  am
    31    29    30   1
    32    30    31   1
    33    30    33   1
    34    31    32   2
    35    31    37  am
    36    33    34   1
    37    34    35   2
    38    34    36  am
    39     3    38   1
    40     3    39   1
    41     3    40   1
    42     4    41   1
    43     5    42   1
    44     8    43   1
    45     8    44   1
    46    10    45   1
    47    11    46   1
    48    12    47   1
    49    13    48   1
    50    21    49   1
    51    21    50   1
    52    22    51   1
    53    22    52   1
    54    23    53   1
    55    23    54   1
    56    24    55   1
    57    24    56   1
    58    25    57   1
    59    25    58   1
    60    26    59   1
    61    29    60   1
    62    30    61   1
    63    33    62   1
    64    33    63   1
    65    36    64   1
    66    36    65   1
    67    37    66   1
    68    37    67   1
@<TRIPOS>SUBSTRUCTURE
     1  ACE      1

