@<TRIPOS>MOLECULE
3s8o_ligand_026
    67    68
SMALL
GAST_HUCK
****
This file was generated by PARSER (from files_GN.cpp)

@<TRIPOS>ATOM
      1 C           6.9100   -4.6869   -0.2107 C.2         1 ACE       0.1753
      2 O           5.7767   -4.3866    0.1421 O.2         1 ACE      -0.3972
      3 CH3         7.2589   -4.4799   -1.5988 C.3         1 ACE       0.0258
      4 N           7.7893   -5.2363    0.6201 N.am        1 ACE      -0.2628
      5 CA          7.5965   -5.5856    2.0052 C.3         1 ACE       0.1465
      6 C           8.6374   -4.9649    2.8143 C.2         1 ACE       0.2045
      7 O           9.7891   -4.9226    2.3983 O.2         1 ACE      -0.3944
      8 CB          7.5130   -7.1363    2.2214 C.3         1 ACE       0.0400
      9 CG          7.9118   -7.9804    1.0610 C.ar        1 ACE      -0.0004
     10 CD1         9.2011   -8.5650    0.9809 C.ar        1 ACE      -0.0239
     11 CD2         7.0066   -8.1817   -0.0109 C.ar        1 ACE      -0.0239
     12 CE1         9.5497   -9.3766   -0.1219 C.ar        1 ACE       0.0115
     13 CE2         7.3574   -8.9939   -1.1068 C.ar        1 ACE       0.0115
     14 CZ          8.6208   -9.6252   -1.1640 C.ar        1 ACE       0.1728
     15 OH          8.8756  -10.3777   -2.2861 O.3         1 ACE      -0.2040
     16 P           9.8737  -11.5676   -2.1260 P.3         1 ACE       0.1348
     17 O1P         9.5978  -12.4280   -1.0004 O.co2       1 ACE      -0.6653
     18 O2P         9.7804  -12.3602   -3.3222 O.co2       1 ACE      -0.6653
     19 O3P        11.2279  -11.0744   -2.0439 O.co2       1 ACE      -0.6653
     20 O          11.3272   -4.2245    5.9309 O.2         1 ACE      -0.3419
     21 CD          7.5544   -1.4144    5.6849 C.3         1 ACE      -0.0532
     22 CG          7.1243   -2.8094    6.2060 C.3         1 ACE      -0.0516
     23 CE          8.3732   -1.5209    4.3720 C.3         1 ACE      -0.0516
     24 CB          8.3391   -3.7684    6.3459 C.3         1 ACE      -0.0199
     25 CH          9.5887   -2.4719    4.5360 C.3         1 ACE      -0.0199
     26 N           8.3442   -4.5334    4.0365 N.am        1 ACE      -0.2738
     27 C          10.3686   -4.7456    5.3690 C.2         1 ACE       0.2267
     28 CA          9.1942   -3.9118    5.0338 C.3         1 ACE       0.1331
     29 N          10.3582   -6.0657    5.1835 N.am        1 ACE      -0.2608
     30 CA         11.3930   -6.9950    5.5606 C.3         1 ACE       0.1474
     31 C          12.5527   -6.8685    4.6734 C.2         1 ACE       0.2017
     32 O          12.4365   -6.3444    3.5752 O.2         1 ACE      -0.3945
     33 CB         10.8251   -8.4553    5.6949 C.3         1 ACE       0.0774
     34 CG         11.2898   -9.4402    4.7177 C.2         1 ACE       0.1781
     35 OD1        10.8315   -9.4697    3.5844 O.2         1 ACE      -0.3970
     36 ND2        12.2355  -10.2994    5.0291 N.am        1 ACE      -0.3007
     37 N          13.7460   -7.2975    5.0200 N.am        1 ACE      -0.2988
     38 H1          8.2869   -4.7828   -1.8116 H           1 ACE       0.0467
     39 H2          7.1548   -3.4222   -1.8472 H           1 ACE       0.0467
     40 H3          6.5918   -5.0616   -2.2396 H           1 ACE       0.0467
     41 H4          8.6391   -5.4883    0.2298 H           1 ACE       0.1885
     42 H5          6.6402   -5.1654    2.3387 H           1 ACE       0.0840
     43 H6          6.4723   -7.3748    2.4790 H           1 ACE       0.0584
     44 H7          8.0984   -7.4350    3.1001 H           1 ACE       0.0584
     45 H8          9.8842   -8.4078    1.7285 H           1 ACE       0.0703
     46 H9          6.0792   -7.7429   -0.0057 H           1 ACE       0.0703
     47 H10        10.4884   -9.7791   -0.1628 H           1 ACE       0.0736
     48 H11         6.6845   -9.1390   -1.8654 H           1 ACE       0.0736
     49 H12         8.1579   -0.9135    6.4463 H           1 ACE       0.0265
     50 H13         6.6664   -0.8003    5.5104 H           1 ACE       0.0265
     51 H14         6.3898   -3.2331    5.5196 H           1 ACE       0.0265
     52 H15         6.6353   -2.6908    7.1755 H           1 ACE       0.0265
     53 H16         8.7279   -0.5267    4.0907 H           1 ACE       0.0265
     54 H17         7.7265   -1.8814    3.5681 H           1 ACE       0.0265
     55 H18         7.9586   -4.7467    6.6552 H           1 ACE       0.0277
     56 H19         8.9640   -3.3983    7.1642 H           1 ACE       0.0277
     57 H20        10.2732   -2.0038    5.2508 H           1 ACE       0.0277
     58 H21        10.1157   -2.5412    3.5812 H           1 ACE       0.0277
     59 H22         7.4296   -4.6859    4.3112 H           1 ACE       0.1839
     60 H23         9.5410   -6.4379    4.8089 H           1 ACE       0.1891
     61 H24        11.7089   -6.7021    6.5719 H           1 ACE       0.0828
     62 H25         9.7278   -8.4525    5.6501 H           1 ACE       0.0551
     63 H26        11.0752   -8.8210    6.7021 H           1 ACE       0.0551
     64 H27        12.5562  -10.9330    4.3703 H           1 ACE       0.1814
     65 H28        12.6621  -10.2729    5.9023 H           1 ACE       0.1814
     66 H29        14.4896   -7.1968    4.4010 H           1 ACE       0.1815
     67 H30        13.8775   -7.7346    5.8796 H           1 ACE       0.1815
@<TRIPOS>BOND
     1     1     2   2
     2     1     3   1
     3     4     1  am
     4     5     4   1
     5     6     5   1
     6     5     8   1
     7     6     7   2
     8    26     6  am
     9     8     9   1
    10     9    10  ar
    11     9    11  ar
    12    10    12  ar
    13    11    13  ar
    14    12    14  ar
    15    13    14  ar
    16    14    15   1
    17    15    16   1
    18    16    17  ar
    19    16    18  ar
    20    16    19  ar
    21    27    20   2
    22    22    21   1
    23    23    21   1
    24    24    22   1
    25    25    23   1
    26    28    24   1
    27    28    25   1
    28    28    26   1
    29    27    28   1
    30    27    29  am
    31    29    30   1
    32    30    31   1
    33    30    33   1
    34    31    32   2
    35    31    37  am
    36    33    34   1
    37    34    35   2
    38    34    36  am
    39     3    38   1
    40     3    39   1
    41     3    40   1
    42     4    41   1
    43     5    42   1
    44     8    43   1
    45     8    44   1
    46    10    45   1
    47    11    46   1
    48    12    47   1
    49    13    48   1
    50    21    49   1
    51    21    50   1
    52    22    51   1
    53    22    52   1
    54    23    53   1
    55    23    54   1
    56    24    55   1
    57    24    56   1
    58    25    57   1
    59    25    58   1
    60    26    59   1
    61    29    60   1
    62    30    61   1
    63    33    62   1
    64    33    63   1
    65    36    64   1
    66    36    65   1
    67    37    66   1
    68    37    67   1
@<TRIPOS>SUBSTRUCTURE
     1  ACE      1

