@<TRIPOS>MOLECULE
3s8o_ligand_062
    67    68
SMALL
GAST_HUCK
****
This file was generated by PARSER (from files_GN.cpp)

@<TRIPOS>ATOM
      1 C          10.1698  -10.4482   -2.4618 C.2         1 ACE       0.1753
      2 O           8.9868  -10.6604   -2.2190 O.2         1 ACE      -0.3972
      3 CH3        11.1324  -11.4325   -2.0291 C.3         1 ACE       0.0258
      4 N          10.5749   -9.3347   -3.0617 N.am        1 ACE      -0.2628
      5 CA          9.7611   -8.2131   -3.4650 C.3         1 ACE       0.1465
      6 C           9.7461   -8.1163   -4.9311 C.2         1 ACE       0.2045
      7 O           9.5916   -7.0189   -5.4508 O.2         1 ACE      -0.3944
      8 CB         10.2798   -6.9259   -2.7266 C.3         1 ACE       0.0400
      9 CG         10.5526   -6.9945   -1.2534 C.ar        1 ACE      -0.0004
     10 CD1         9.9417   -7.9555   -0.4101 C.ar        1 ACE      -0.0239
     11 CD2        11.4366   -6.0580   -0.6555 C.ar        1 ACE      -0.0239
     12 CE1        10.3003   -8.0654    0.9433 C.ar        1 ACE       0.0115
     13 CE2        11.7430   -6.1224    0.7215 C.ar        1 ACE       0.0115
     14 CZ         11.1790   -7.1327    1.5302 C.ar        1 ACE       0.1728
     15 OH         11.5154   -7.2647    2.8498 O.3         1 ACE      -0.2040
     16 P          10.5629   -6.5085    3.8312 P.3         1 ACE       0.1348
     17 O1P        10.9050   -6.9363    5.1573 O.co2       1 ACE      -0.6653
     18 O2P        10.7880   -5.0870    3.7719 O.co2       1 ACE      -0.6653
     19 O3P         9.1673   -6.7955    3.6435 O.co2       1 ACE      -0.6653
     20 O           9.4869  -11.7152   -6.3864 O.2         1 ACE      -0.3419
     21 CD          9.4728   -7.9429   -9.7651 C.3         1 ACE      -0.0532
     22 CG         10.8230   -8.5527   -9.3130 C.3         1 ACE      -0.0516
     23 CE          8.2383   -8.6996   -9.2116 C.3         1 ACE      -0.0516
     24 CB         10.8970   -8.7956   -7.7765 C.3         1 ACE      -0.0199
     25 CH          8.3006   -8.8431   -7.6671 C.3         1 ACE      -0.0199
     26 N           9.7281   -9.2300   -5.6665 N.am        1 ACE      -0.2738
     27 C           9.6107  -10.9325   -7.3221 C.2         1 ACE       0.2267
     28 CA          9.6348   -9.4589   -7.1035 C.3         1 ACE       0.1331
     29 N           9.6893  -11.4547   -8.5402 N.am        1 ACE      -0.2608
     30 CA          9.6081  -12.8258   -8.9571 C.3         1 ACE       0.1474
     31 C          10.9512  -13.2170   -9.3584 C.2         1 ACE       0.2017
     32 O          11.5795  -14.0425   -8.7121 O.2         1 ACE      -0.3945
     33 CB          8.5166  -12.9330  -10.0723 C.3         1 ACE       0.0774
     34 CG          8.4087  -14.2285  -10.7248 C.2         1 ACE       0.1781
     35 OD1         7.4173  -14.9316  -10.5772 O.2         1 ACE      -0.3970
     36 ND2         9.3516  -14.6566  -11.5342 N.am        1 ACE      -0.3007
     37 N          11.5157  -12.7225  -10.4404 N.am        1 ACE      -0.2988
     38 H1         12.1483  -11.1745   -2.3383 H           1 ACE       0.0467
     39 H2         10.8826  -12.4096   -2.4497 H           1 ACE       0.0467
     40 H3         11.1134  -11.5035   -0.9395 H           1 ACE       0.0467
     41 H4         11.5218   -9.2659   -3.2544 H           1 ACE       0.1885
     42 H5          8.7154   -8.3535   -3.1715 H           1 ACE       0.0840
     43 H6          9.5581   -6.1179   -2.8755 H           1 ACE       0.0584
     44 H7         11.2016   -6.6196   -3.2323 H           1 ACE       0.0584
     45 H8          9.2327   -8.5926   -0.7725 H           1 ACE       0.0703
     46 H9         11.8686   -5.3198   -1.2218 H           1 ACE       0.0703
     47 H10         9.8990   -8.8094    1.5159 H           1 ACE       0.0736
     48 H11        12.3935   -5.4411    1.1291 H           1 ACE       0.0736
     49 H12         9.4292   -7.9427  -10.8575 H           1 ACE       0.0265
     50 H13         9.4306   -6.9016   -9.4321 H           1 ACE       0.0265
     51 H14        11.6297   -7.8704   -9.6017 H           1 ACE       0.0265
     52 H15        11.0066   -9.4802   -9.8563 H           1 ACE       0.0265
     53 H16         8.1495   -9.6770   -9.6901 H           1 ACE       0.0265
     54 H17         7.3389   -8.1379   -9.4761 H           1 ACE       0.0265
     55 H18        11.0784   -7.8177   -7.3282 H           1 ACE       0.0277
     56 H19        11.7858   -9.3962   -7.5652 H           1 ACE       0.0277
     57 H20         7.4453   -9.4393   -7.3337 H           1 ACE       0.0277
     58 H21         8.1522   -7.8393   -7.2710 H           1 ACE       0.0277
     59 H22         9.8269  -10.0361   -5.1437 H           1 ACE       0.1839
     60 H23         9.8037  -10.8272   -9.2611 H           1 ACE       0.1891
     61 H24         9.2892  -13.4656   -8.1243 H           1 ACE       0.0828
     62 H25         8.7000  -12.1796  -10.8457 H           1 ACE       0.0551
     63 H26         7.5545  -12.6788   -9.6160 H           1 ACE       0.0551
     64 H27         9.3175  -15.5473  -11.9152 H           1 ACE       0.1814
     65 H28        10.1242  -14.0990  -11.7129 H           1 ACE       0.1814
     66 H29        12.3847  -13.0432  -10.7271 H           1 ACE       0.1815
     67 H30        11.0286  -12.0956  -10.9988 H           1 ACE       0.1815
@<TRIPOS>BOND
     1     1     2   2
     2     1     3   1
     3     4     1  am
     4     5     4   1
     5     6     5   1
     6     5     8   1
     7     6     7   2
     8    26     6  am
     9     8     9   1
    10     9    10  ar
    11     9    11  ar
    12    10    12  ar
    13    11    13  ar
    14    12    14  ar
    15    13    14  ar
    16    14    15   1
    17    15    16   1
    18    16    17  ar
    19    16    18  ar
    20    16    19  ar
    21    27    20   2
    22    22    21   1
    23    23    21   1
    24    24    22   1
    25    25    23   1
    26    28    24   1
    27    28    25   1
    28    28    26   1
    29    27    28   1
    30    27    29  am
    31    29    30   1
    32    30    31   1
    33    30    33   1
    34    31    32   2
    35    31    37  am
    36    33    34   1
    37    34    35   2
    38    34    36  am
    39     3    38   1
    40     3    39   1
    41     3    40   1
    42     4    41   1
    43     5    42   1
    44     8    43   1
    45     8    44   1
    46    10    45   1
    47    11    46   1
    48    12    47   1
    49    13    48   1
    50    21    49   1
    51    21    50   1
    52    22    51   1
    53    22    52   1
    54    23    53   1
    55    23    54   1
    56    24    55   1
    57    24    56   1
    58    25    57   1
    59    25    58   1
    60    26    59   1
    61    29    60   1
    62    30    61   1
    63    33    62   1
    64    33    63   1
    65    36    64   1
    66    36    65   1
    67    37    66   1
    68    37    67   1
@<TRIPOS>SUBSTRUCTURE
     1  ACE      1

