@<TRIPOS>MOLECULE
3s8o_ligand_044
    67    68
SMALL
GAST_HUCK
****
This file was generated by PARSER (from files_GN.cpp)

@<TRIPOS>ATOM
      1 C           4.6111   -8.3565   -1.0320 C.2         1 ACE       0.1753
      2 O           4.7875   -9.5140   -0.6716 O.2         1 ACE      -0.3972
      3 CH3         3.3395   -8.0179   -1.6259 C.3         1 ACE       0.0258
      4 N           5.5278   -7.4139   -0.8576 N.am        1 ACE      -0.2628
      5 CA          6.8383   -7.5616   -0.2875 C.3         1 ACE       0.1465
      6 C           6.7473   -7.0887    1.0926 C.2         1 ACE       0.2045
      7 O           6.7761   -5.8900    1.3453 O.2         1 ACE      -0.3944
      8 CB          7.8884   -6.8144   -1.1737 C.3         1 ACE       0.0400
      9 CG          7.7373   -7.0298   -2.6442 C.ar        1 ACE      -0.0004
     10 CD1         8.6327   -7.8623   -3.3566 C.ar        1 ACE      -0.0239
     11 CD2         6.7199   -6.3653   -3.3708 C.ar        1 ACE      -0.0239
     12 CE1         8.5293   -8.0068   -4.7531 C.ar        1 ACE       0.0115
     13 CE2         6.6142   -6.5110   -4.7657 C.ar        1 ACE       0.0115
     14 CZ          7.5391   -7.3063   -5.4729 C.ar        1 ACE       0.1728
     15 OH          7.4027   -7.4952   -6.8225 O.3         1 ACE      -0.2040
     16 P           8.2055   -6.4827   -7.6943 P.3         1 ACE       0.1348
     17 O1P         7.9336   -6.7988   -9.0731 O.co2       1 ACE      -0.6653
     18 O2P         7.7917   -5.1204   -7.4876 O.co2       1 ACE      -0.6653
     19 O3P         9.6302   -6.5999   -7.5085 O.co2       1 ACE      -0.6653
     20 O           7.5480   -6.4390    4.9016 O.2         1 ACE      -0.3419
     21 CD          3.9055   -7.7475    5.4567 C.3         1 ACE      -0.0532
     22 CG          4.9493   -8.8931    5.4190 C.3         1 ACE      -0.0516
     23 CE          4.4832   -6.4197    4.9075 C.3         1 ACE      -0.0516
     24 CB          5.5536   -9.0507    3.9968 C.3         1 ACE      -0.0199
     25 CH          5.1536   -6.5946    3.5177 C.3         1 ACE      -0.0199
     26 N           6.5518   -7.9777    2.0655 N.am        1 ACE      -0.2738
     27 C           7.4794   -7.4496    4.2114 C.2         1 ACE       0.2267
     28 CA          6.2370   -7.7405    3.4601 C.3         1 ACE       0.1331
     29 N           8.5497   -8.2378    4.1025 N.am        1 ACE      -0.2608
     30 CA          9.8629   -8.0265    4.6694 C.3         1 ACE       0.1474
     31 C          10.8074   -7.9658    3.5565 C.2         1 ACE       0.2017
     32 O          10.9550   -8.9199    2.8044 O.2         1 ACE      -0.3945
     33 CB         10.1897   -9.0816    5.7888 C.3         1 ACE       0.0774
     34 CG         11.0500  -10.2065    5.4510 C.2         1 ACE       0.1781
     35 OD1        10.7249  -11.3520    5.7264 O.2         1 ACE      -0.3970
     36 ND2        12.2329  -10.0294    4.9050 N.am        1 ACE      -0.3007
     37 N          11.5259   -6.8926    3.3082 N.am        1 ACE      -0.2988
     38 H1          3.3008   -6.9694   -1.9312 H           1 ACE       0.0467
     39 H2          2.5407   -8.1956   -0.9038 H           1 ACE       0.0467
     40 H3          3.1655   -8.6378   -2.5076 H           1 ACE       0.0467
     41 H4          5.2840   -6.5179   -1.1412 H           1 ACE       0.1885
     42 H5          7.1473   -8.6124   -0.2522 H           1 ACE       0.0840
     43 H6          8.8849   -7.1407   -0.8594 H           1 ACE       0.0584
     44 H7          7.8434   -5.7391   -0.9764 H           1 ACE       0.0584
     45 H8          9.3694   -8.3709   -2.8623 H           1 ACE       0.0703
     46 H9          6.0506   -5.7606   -2.8882 H           1 ACE       0.0703
     47 H10         9.1781   -8.6226   -5.2480 H           1 ACE       0.0736
     48 H11         5.8674   -6.0278   -5.2711 H           1 ACE       0.0736
     49 H12         3.5711   -7.5935    6.4861 H           1 ACE       0.0265
     50 H13         3.0331   -8.0356    4.8615 H           1 ACE       0.0265
     51 H14         4.4652   -9.8304    5.7113 H           1 ACE       0.0265
     52 H15         5.7460   -8.6908    6.1393 H           1 ACE       0.0265
     53 H16         5.2099   -6.0236    5.6205 H           1 ACE       0.0265
     54 H17         3.6773   -5.6873    4.8218 H           1 ACE       0.0265
     55 H18         4.7410   -9.3449    3.3222 H           1 ACE       0.0277
     56 H19         6.2672   -9.8777    4.0015 H           1 ACE       0.0277
     57 H20         5.5990   -5.6362    3.2345 H           1 ACE       0.0277
     58 H21         4.3634   -6.8019    2.7896 H           1 ACE       0.0277
     59 H22         6.5618   -8.9084    1.7892 H           1 ACE       0.1839
     60 H23         8.4512   -9.0289    3.5493 H           1 ACE       0.1891
     61 H24         9.8851   -7.0533    5.1724 H           1 ACE       0.0828
     62 H25         9.2483   -9.4701    6.1872 H           1 ACE       0.0551
     63 H26        10.6690   -8.5649    6.6300 H           1 ACE       0.0551
     64 H27        12.7984  -10.7962    4.7199 H           1 ACE       0.1814
     65 H28        12.5448   -9.1373    4.6791 H           1 ACE       0.1814
     66 H29        12.1401   -6.8866    2.5582 H           1 ACE       0.1815
     67 H30        11.4488   -6.1082    3.8732 H           1 ACE       0.1815
@<TRIPOS>BOND
     1     1     2   2
     2     1     3   1
     3     4     1  am
     4     5     4   1
     5     6     5   1
     6     5     8   1
     7     6     7   2
     8    26     6  am
     9     8     9   1
    10     9    10  ar
    11     9    11  ar
    12    10    12  ar
    13    11    13  ar
    14    12    14  ar
    15    13    14  ar
    16    14    15   1
    17    15    16   1
    18    16    17  ar
    19    16    18  ar
    20    16    19  ar
    21    27    20   2
    22    22    21   1
    23    23    21   1
    24    24    22   1
    25    25    23   1
    26    28    24   1
    27    28    25   1
    28    28    26   1
    29    27    28   1
    30    27    29  am
    31    29    30   1
    32    30    31   1
    33    30    33   1
    34    31    32   2
    35    31    37  am
    36    33    34   1
    37    34    35   2
    38    34    36  am
    39     3    38   1
    40     3    39   1
    41     3    40   1
    42     4    41   1
    43     5    42   1
    44     8    43   1
    45     8    44   1
    46    10    45   1
    47    11    46   1
    48    12    47   1
    49    13    48   1
    50    21    49   1
    51    21    50   1
    52    22    51   1
    53    22    52   1
    54    23    53   1
    55    23    54   1
    56    24    55   1
    57    24    56   1
    58    25    57   1
    59    25    58   1
    60    26    59   1
    61    29    60   1
    62    30    61   1
    63    33    62   1
    64    33    63   1
    65    36    64   1
    66    36    65   1
    67    37    66   1
    68    37    67   1
@<TRIPOS>SUBSTRUCTURE
     1  ACE      1

