@<TRIPOS>MOLECULE
3s8o_ligand_088
    67    68
SMALL
GAST_HUCK
****
This file was generated by PARSER (from files_GN.cpp)

@<TRIPOS>ATOM
      1 C          14.1025   -9.5999   -3.6273 C.2         1 ACE       0.1753
      2 O          14.8028  -10.4869   -3.1551 O.2         1 ACE      -0.3972
      3 CH3        14.6421   -8.2626   -3.7024 C.3         1 ACE       0.0258
      4 N          12.8673   -9.8328   -4.0432 N.am        1 ACE      -0.2628
      5 CA         12.1407  -11.0773   -3.9740 C.3         1 ACE       0.1465
      6 C          11.1290  -11.1685   -5.0378 C.2         1 ACE       0.2045
      7 O          10.2170  -11.9813   -4.9277 O.2         1 ACE      -0.3944
      8 CB         11.5933  -11.2880   -2.5193 C.3         1 ACE       0.0400
      9 CG         10.6057  -10.2729   -2.0344 C.ar        1 ACE      -0.0004
     10 CD1        11.0087   -8.9416   -1.7615 C.ar        1 ACE      -0.0239
     11 CD2         9.2653  -10.6297   -1.7656 C.ar        1 ACE      -0.0239
     12 CE1        10.0877   -7.9864   -1.2911 C.ar        1 ACE       0.0115
     13 CE2         8.3410   -9.6740   -1.2977 C.ar        1 ACE       0.0115
     14 CZ          8.7362   -8.3376   -1.0932 C.ar        1 ACE       0.1728
     15 OH          7.8498   -7.4156   -0.6011 O.3         1 ACE      -0.2040
     16 P           7.0034   -6.7103   -1.6942 P.3         1 ACE       0.1348
     17 O1P         6.2574   -7.6642   -2.4886 O.co2       1 ACE      -0.6653
     18 O2P         6.0157   -5.9006   -1.0130 O.co2       1 ACE      -0.6653
     19 O3P         7.7601   -5.8326   -2.5615 O.co2       1 ACE      -0.6653
     20 O          11.5761  -12.6603   -7.7463 O.2         1 ACE      -0.3419
     21 CD          9.3722   -7.7523   -7.2318 C.3         1 ACE      -0.0532
     22 CG         10.8802   -7.9400   -7.5322 C.3         1 ACE      -0.0516
     23 CE          8.7629   -8.9747   -6.4999 C.3         1 ACE      -0.0516
     24 CB         11.1586   -9.2932   -8.2462 C.3         1 ACE      -0.0199
     25 CH          9.0736  -10.3018   -7.2459 C.3         1 ACE      -0.0199
     26 N          11.3441  -10.5458   -6.1982 N.am        1 ACE      -0.2738
     27 C          10.8567  -11.7778   -8.2167 C.2         1 ACE       0.2267
     28 CA         10.6089  -10.5390   -7.4531 C.3         1 ACE       0.1331
     29 N          10.3782  -11.9240   -9.4502 N.am        1 ACE      -0.2608
     30 CA         10.7494  -12.9448  -10.3992 C.3         1 ACE       0.1474
     31 C          10.6954  -12.3887  -11.7514 C.2         1 ACE       0.2017
     32 O          10.1380  -12.9594  -12.6805 O.2         1 ACE      -0.3945
     33 CB          9.9672  -14.2751  -10.1458 C.3         1 ACE       0.0774
     34 CG          8.6345  -14.3548  -10.7140 C.2         1 ACE       0.1781
     35 OD1         7.7843  -13.5116  -10.4297 O.2         1 ACE      -0.3970
     36 ND2         8.3034  -15.3116  -11.5530 N.am        1 ACE      -0.3007
     37 N          11.3123  -11.2640  -12.0399 N.am        1 ACE      -0.2988
     38 H1         13.9175   -7.5576   -4.1200 H           1 ACE       0.0467
     39 H2         15.5305   -8.2565   -4.3346 H           1 ACE       0.0467
     40 H3         14.9131   -7.9218   -2.7025 H           1 ACE       0.0467
     41 H4         12.3788   -9.0691   -4.3917 H           1 ACE       0.1885
     42 H5         12.8413  -11.8916   -4.1823 H           1 ACE       0.0840
     43 H6         12.4331  -11.2932   -1.8169 H           1 ACE       0.0584
     44 H7         11.1608  -12.2904   -2.4658 H           1 ACE       0.0584
     45 H8         11.9802   -8.6568   -1.8882 H           1 ACE       0.0703
     46 H9          8.9475  -11.5899   -1.9208 H           1 ACE       0.0703
     47 H10        10.4000   -7.0312   -1.1051 H           1 ACE       0.0736
     48 H11         7.3729   -9.9479   -1.1155 H           1 ACE       0.0736
     49 H12         8.8389   -7.5941   -8.1731 H           1 ACE       0.0265
     50 H13         9.2386   -6.8590   -6.6155 H           1 ACE       0.0265
     51 H14        11.4434   -7.8933   -6.5970 H           1 ACE       0.0265
     52 H15        11.2278   -7.1178   -8.1652 H           1 ACE       0.0265
     53 H16         7.6807   -8.8433   -6.4330 H           1 ACE       0.0265
     54 H17         9.1554   -9.0217   -5.4815 H           1 ACE       0.0265
     55 H18        12.2372   -9.3791   -8.3925 H           1 ACE       0.0277
     56 H19        10.7047   -9.2394   -9.2412 H           1 ACE       0.0277
     57 H20         8.5658  -10.2693   -8.2144 H           1 ACE       0.0277
     58 H21         8.6454  -11.1387   -6.7005 H           1 ACE       0.0277
     59 H22        12.1552  -10.0159   -6.2151 H           1 ACE       0.1839
     60 H23         9.8400  -11.1920   -9.7968 H           1 ACE       0.1891
     61 H24        11.8058  -13.1845  -10.2480 H           1 ACE       0.0828
     62 H25         9.8818  -14.4401   -9.0710 H           1 ACE       0.0551
     63 H26        10.5768  -15.0981  -10.5316 H           1 ACE       0.0551
     64 H27         7.4095  -15.3450  -11.9311 H           1 ACE       0.1814
     65 H28         8.9576  -15.9924  -11.7984 H           1 ACE       0.1814
     66 H29        11.2851  -10.9141  -12.9446 H           1 ACE       0.1815
     67 H30        11.7929  -10.7786  -11.3495 H           1 ACE       0.1815
@<TRIPOS>BOND
     1     1     2   2
     2     1     3   1
     3     4     1  am
     4     5     4   1
     5     6     5   1
     6     5     8   1
     7     6     7   2
     8    26     6  am
     9     8     9   1
    10     9    10  ar
    11     9    11  ar
    12    10    12  ar
    13    11    13  ar
    14    12    14  ar
    15    13    14  ar
    16    14    15   1
    17    15    16   1
    18    16    17  ar
    19    16    18  ar
    20    16    19  ar
    21    27    20   2
    22    22    21   1
    23    23    21   1
    24    24    22   1
    25    25    23   1
    26    28    24   1
    27    28    25   1
    28    28    26   1
    29    27    28   1
    30    27    29  am
    31    29    30   1
    32    30    31   1
    33    30    33   1
    34    31    32   2
    35    31    37  am
    36    33    34   1
    37    34    35   2
    38    34    36  am
    39     3    38   1
    40     3    39   1
    41     3    40   1
    42     4    41   1
    43     5    42   1
    44     8    43   1
    45     8    44   1
    46    10    45   1
    47    11    46   1
    48    12    47   1
    49    13    48   1
    50    21    49   1
    51    21    50   1
    52    22    51   1
    53    22    52   1
    54    23    53   1
    55    23    54   1
    56    24    55   1
    57    24    56   1
    58    25    57   1
    59    25    58   1
    60    26    59   1
    61    29    60   1
    62    30    61   1
    63    33    62   1
    64    33    63   1
    65    36    64   1
    66    36    65   1
    67    37    66   1
    68    37    67   1
@<TRIPOS>SUBSTRUCTURE
     1  ACE      1

