@<TRIPOS>MOLECULE
3s8o_ligand_025
    67    68
SMALL
GAST_HUCK
****
This file was generated by PARSER (from files_GN.cpp)

@<TRIPOS>ATOM
      1 C           9.5493  -10.0317   -7.9885 C.2         1 ACE       0.1753
      2 O           8.4626   -9.9274   -7.4305 O.2         1 ACE      -0.3972
      3 CH3        10.0003   -8.9190   -8.7940 C.3         1 ACE       0.0258
      4 N          10.2928  -11.1252   -7.8852 N.am        1 ACE      -0.2628
      5 CA          9.9714  -12.3227   -7.1487 C.3         1 ACE       0.1465
      6 C          10.6404  -12.3181   -5.8483 C.2         1 ACE       0.2045
      7 O          11.1549  -13.3504   -5.4260 O.2         1 ACE      -0.3944
      8 CB         10.3103  -13.5772   -8.0235 C.3         1 ACE       0.0400
      9 CG         10.0196  -13.4504   -9.4822 C.ar        1 ACE      -0.0004
     10 CD1        10.9747  -13.8666  -10.4422 C.ar        1 ACE      -0.0239
     11 CD2         8.8010  -12.9058   -9.9471 C.ar        1 ACE      -0.0239
     12 CE1        10.7233  -13.7360  -11.8197 C.ar        1 ACE       0.0115
     13 CE2         8.5582  -12.7431  -11.3229 C.ar        1 ACE       0.0115
     14 CZ          9.5312  -13.1241  -12.2694 C.ar        1 ACE       0.1728
     15 OH          9.2831  -12.9958  -13.6104 O.3         1 ACE      -0.2040
     16 P           9.7741  -11.6522  -14.2221 P.3         1 ACE       0.1348
     17 O1P         9.4192  -11.6335  -15.6094 O.co2       1 ACE      -0.6653
     18 O2P         9.1314  -10.5016  -13.6212 O.co2       1 ACE      -0.6653
     19 O3P        11.2148  -11.4963  -14.1355 O.co2       1 ACE      -0.6653
     20 O          13.1693  -11.9477   -4.8267 O.2         1 ACE      -0.3419
     21 CD         10.4804   -9.7339   -1.0990 C.3         1 ACE      -0.0532
     22 CG         10.6495  -11.2665   -1.2290 C.3         1 ACE      -0.0516
     23 CE         11.3596   -8.9502   -2.1097 C.3         1 ACE      -0.0516
     24 CB         10.4215  -11.7453   -2.6890 C.3         1 ACE      -0.0199
     25 CH         11.1768   -9.4598   -3.5687 C.3         1 ACE      -0.0199
     26 N          10.6554  -11.2247   -5.0908 N.am        1 ACE      -0.2738
     27 C          12.6892  -11.4920   -3.7972 C.2         1 ACE       0.2267
     28 CA         11.2815  -11.0138   -3.7915 C.3         1 ACE       0.1331
     29 N          13.4519  -11.5005   -2.7105 N.am        1 ACE      -0.2608
     30 CA         14.7291  -12.1474   -2.5429 C.3         1 ACE       0.1474
     31 C          15.3509  -11.7241   -1.2894 C.2         1 ACE       0.2017
     32 O          15.6817  -10.5613   -1.1116 O.2         1 ACE      -0.3945
     33 CB         15.7346  -11.9723   -3.7172 C.3         1 ACE       0.0774
     34 CG         16.2708  -10.6274   -3.8745 C.2         1 ACE       0.1781
     35 OD1        15.6806   -9.7889   -4.5515 O.2         1 ACE      -0.3970
     36 ND2        17.3944  -10.2750   -3.2849 N.am        1 ACE      -0.3007
     37 N          15.6712  -12.5754   -0.3387 N.am        1 ACE      -0.2988
     38 H1         10.9672   -9.1266   -9.2600 H           1 ACE       0.0467
     39 H2         10.1005   -8.0285   -8.1693 H           1 ACE       0.0467
     40 H3          9.2725   -8.7176   -9.5833 H           1 ACE       0.0467
     41 H4         11.1379  -11.1205   -8.3568 H           1 ACE       0.1885
     42 H5          8.9010  -12.3679   -6.9350 H           1 ACE       0.0840
     43 H6          9.7414  -14.4317   -7.6511 H           1 ACE       0.0584
     44 H7         11.3687  -13.8203   -7.8808 H           1 ACE       0.0584
     45 H8         11.8648  -14.2757  -10.1482 H           1 ACE       0.0703
     46 H9          8.0895  -12.5987   -9.2820 H           1 ACE       0.0703
     47 H10        11.4234  -14.0580  -12.4966 H           1 ACE       0.0736
     48 H11         7.6780  -12.3311  -11.6365 H           1 ACE       0.0736
     49 H12        10.7402   -9.4312   -0.0810 H           1 ACE       0.0265
     50 H13         9.4299   -9.4802   -1.2671 H           1 ACE       0.0265
     51 H14         9.9233  -11.7606   -0.5775 H           1 ACE       0.0265
     52 H15        11.6427  -11.5679   -0.8865 H           1 ACE       0.0265
     53 H16        12.4101   -9.0120   -1.8251 H           1 ACE       0.0265
     54 H17        11.0774   -7.8929   -2.0638 H           1 ACE       0.0265
     55 H18         9.3607  -11.5973   -2.9163 H           1 ACE       0.0277
     56 H19        10.6055  -12.8225   -2.7134 H           1 ACE       0.0277
     57 H20        11.8988   -8.9407   -4.2096 H           1 ACE       0.0277
     58 H21        10.1781   -9.1209   -3.8761 H           1 ACE       0.0277
     59 H22        10.2170  -10.4534   -5.4722 H           1 ACE       0.1839
     60 H23        13.0690  -11.1142   -1.9158 H           1 ACE       0.1891
     61 H24        14.5194  -13.2194   -2.4753 H           1 ACE       0.0828
     62 H25        15.2537  -12.2628   -4.6435 H           1 ACE       0.0551
     63 H26        16.5588  -12.6790   -3.5725 H           1 ACE       0.0551
     64 H27        17.7486   -9.3739   -3.3937 H           1 ACE       0.1814
     65 H28        17.8577  -10.9146   -2.7052 H           1 ACE       0.1814
     66 H29        16.1006  -12.2582    0.4760 H           1 ACE       0.1815
     67 H30        15.4898  -13.5233   -0.4446 H           1 ACE       0.1815
@<TRIPOS>BOND
     1     1     2   2
     2     1     3   1
     3     4     1  am
     4     5     4   1
     5     6     5   1
     6     5     8   1
     7     6     7   2
     8    26     6  am
     9     8     9   1
    10     9    10  ar
    11     9    11  ar
    12    10    12  ar
    13    11    13  ar
    14    12    14  ar
    15    13    14  ar
    16    14    15   1
    17    15    16   1
    18    16    17  ar
    19    16    18  ar
    20    16    19  ar
    21    27    20   2
    22    22    21   1
    23    23    21   1
    24    24    22   1
    25    25    23   1
    26    28    24   1
    27    28    25   1
    28    28    26   1
    29    27    28   1
    30    27    29  am
    31    29    30   1
    32    30    31   1
    33    30    33   1
    34    31    32   2
    35    31    37  am
    36    33    34   1
    37    34    35   2
    38    34    36  am
    39     3    38   1
    40     3    39   1
    41     3    40   1
    42     4    41   1
    43     5    42   1
    44     8    43   1
    45     8    44   1
    46    10    45   1
    47    11    46   1
    48    12    47   1
    49    13    48   1
    50    21    49   1
    51    21    50   1
    52    22    51   1
    53    22    52   1
    54    23    53   1
    55    23    54   1
    56    24    55   1
    57    24    56   1
    58    25    57   1
    59    25    58   1
    60    26    59   1
    61    29    60   1
    62    30    61   1
    63    33    62   1
    64    33    63   1
    65    36    64   1
    66    36    65   1
    67    37    66   1
    68    37    67   1
@<TRIPOS>SUBSTRUCTURE
     1  ACE      1

