@<TRIPOS>MOLECULE
3s8o_ligand_053
    67    68
SMALL
GAST_HUCK
****
This file was generated by PARSER (from files_GN.cpp)

@<TRIPOS>ATOM
      1 C           4.7463   -8.8213    4.8184 C.2         1 ACE       0.1753
      2 O           4.5269   -9.9097    4.3005 O.2         1 ACE      -0.3972
      3 CH3         4.5294   -8.6836    6.2367 C.3         1 ACE       0.0258
      4 N           5.1504   -7.7744    4.1060 N.am        1 ACE      -0.2628
      5 CA          5.4306   -7.7272    2.6982 C.3         1 ACE       0.1465
      6 C           6.7579   -7.1568    2.4892 C.2         1 ACE       0.2045
      7 O           6.9828   -6.0035    2.8357 O.2         1 ACE      -0.3944
      8 CB          4.3135   -6.9098    1.9647 C.3         1 ACE       0.0400
      9 CG          3.1827   -7.7578    1.4891 C.ar        1 ACE      -0.0004
     10 CD1         3.4199   -8.7570    0.5152 C.ar        1 ACE      -0.0239
     11 CD2         1.8649   -7.5863    1.9707 C.ar        1 ACE      -0.0239
     12 CE1         2.3701   -9.5583    0.0337 C.ar        1 ACE       0.0115
     13 CE2         0.8085   -8.3856    1.4827 C.ar        1 ACE       0.0115
     14 CZ          1.0506   -9.3606    0.4905 C.ar        1 ACE       0.1728
     15 OH          0.0523  -10.1753    0.0370 O.3         1 ACE      -0.2040
     16 P          -0.5968   -9.7278   -1.3008 P.3         1 ACE       0.1348
     17 O1P        -1.0131  -10.9473   -1.9581 O.co2       1 ACE      -0.6653
     18 O2P        -1.7860   -8.9331   -1.0919 O.co2       1 ACE      -0.6653
     19 O3P         0.2884   -9.0729   -2.2361 O.co2       1 ACE      -0.6653
     20 O          10.6381   -6.5482    2.9055 O.2         1 ACE      -0.3419
     21 CD         10.7966   -7.0848   -0.9947 C.3         1 ACE      -0.0532
     22 CG         10.3236   -5.8871   -0.1388 C.3         1 ACE      -0.0516
     23 CE         10.8590   -8.3918   -0.1701 C.3         1 ACE      -0.0516
     24 CB          9.0078   -6.1996    0.6348 C.3         1 ACE      -0.0199
     25 CH          9.5095   -8.6900    0.5263 C.3         1 ACE      -0.0199
     26 N           7.6881   -7.8864    1.8709 N.am        1 ACE      -0.2738
     27 C           9.8900   -7.4988    2.6896 C.2         1 ACE       0.2267
     28 CA          9.0374   -7.5366    1.4775 C.3         1 ACE       0.1331
     29 N           9.8442   -8.5103    3.5572 N.am        1 ACE      -0.2608
     30 CA         10.4677   -8.7242    4.8411 C.3         1 ACE       0.1474
     31 C          10.9792   -7.5601    5.5629 C.2         1 ACE       0.2017
     32 O          10.3962   -6.4821    5.4529 O.2         1 ACE      -0.3945
     33 CB         11.4158   -9.9732    4.7846 C.3         1 ACE       0.0774
     34 CG         12.8225   -9.7699    4.4659 C.2         1 ACE       0.1781
     35 OD1        13.6724  -10.4842    4.9816 O.2         1 ACE      -0.3970
     36 ND2        13.2617   -8.8407    3.6448 N.am        1 ACE      -0.3007
     37 N          11.9660   -7.5920    6.4402 N.am        1 ACE      -0.2988
     38 H1          4.7940   -7.6848    6.5952 H           1 ACE       0.0467
     39 H2          5.1375   -9.4139    6.7775 H           1 ACE       0.0467
     40 H3          3.4765   -8.8592    6.4631 H           1 ACE       0.0467
     41 H4          5.2613   -6.9431    4.5978 H           1 ACE       0.1885
     42 H5          5.4351   -8.7427    2.2868 H           1 ACE       0.0840
     43 H6          4.7277   -6.4068    1.0853 H           1 ACE       0.0584
     44 H7          3.9480   -6.1146    2.6238 H           1 ACE       0.0584
     45 H8          4.3622   -8.9037    0.1431 H           1 ACE       0.0703
     46 H9          1.6611   -6.8776    2.6789 H           1 ACE       0.0703
     47 H10         2.5686  -10.2783   -0.6653 H           1 ACE       0.0736
     48 H11        -0.1365   -8.2543    1.8484 H           1 ACE       0.0736
     49 H12        11.7892   -6.8692   -1.4014 H           1 ACE       0.0265
     50 H13        10.1042   -7.2219   -1.8330 H           1 ACE       0.0265
     51 H14        10.1593   -5.0229   -0.7888 H           1 ACE       0.0265
     52 H15        11.1156   -5.6156    0.5661 H           1 ACE       0.0265
     53 H16        11.6407   -8.3015    0.5932 H           1 ACE       0.0265
     54 H17        11.1192   -9.2225   -0.8303 H           1 ACE       0.0265
     55 H18         8.1908   -6.2532   -0.0992 H           1 ACE       0.0277
     56 H19         8.7970   -5.3491    1.2834 H           1 ACE       0.0277
     57 H20         9.5984   -9.6412    1.0665 H           1 ACE       0.0277
     58 H21         8.7564   -8.8524   -0.2581 H           1 ACE       0.0277
     59 H22         7.4090   -8.7888    1.6323 H           1 ACE       0.1839
     60 H23         9.2730   -9.2466    3.2868 H           1 ACE       0.1891
     61 H24         9.6266   -9.0478    5.4648 H           1 ACE       0.0828
     62 H25        11.0227  -10.6891    4.0491 H           1 ACE       0.0551
     63 H26        11.3686  -10.4714    5.7609 H           1 ACE       0.0551
     64 H27        14.2155   -8.7500    3.4886 H           1 ACE       0.1814
     65 H28        12.6496   -8.2290    3.2117 H           1 ACE       0.1814
     66 H29        12.2592   -6.7620    6.8643 H           1 ACE       0.1815
     67 H30        12.4117   -8.4215    6.6598 H           1 ACE       0.1815
@<TRIPOS>BOND
     1     1     2   2
     2     1     3   1
     3     4     1  am
     4     5     4   1
     5     6     5   1
     6     5     8   1
     7     6     7   2
     8    26     6  am
     9     8     9   1
    10     9    10  ar
    11     9    11  ar
    12    10    12  ar
    13    11    13  ar
    14    12    14  ar
    15    13    14  ar
    16    14    15   1
    17    15    16   1
    18    16    17  ar
    19    16    18  ar
    20    16    19  ar
    21    27    20   2
    22    22    21   1
    23    23    21   1
    24    24    22   1
    25    25    23   1
    26    28    24   1
    27    28    25   1
    28    28    26   1
    29    27    28   1
    30    27    29  am
    31    29    30   1
    32    30    31   1
    33    30    33   1
    34    31    32   2
    35    31    37  am
    36    33    34   1
    37    34    35   2
    38    34    36  am
    39     3    38   1
    40     3    39   1
    41     3    40   1
    42     4    41   1
    43     5    42   1
    44     8    43   1
    45     8    44   1
    46    10    45   1
    47    11    46   1
    48    12    47   1
    49    13    48   1
    50    21    49   1
    51    21    50   1
    52    22    51   1
    53    22    52   1
    54    23    53   1
    55    23    54   1
    56    24    55   1
    57    24    56   1
    58    25    57   1
    59    25    58   1
    60    26    59   1
    61    29    60   1
    62    30    61   1
    63    33    62   1
    64    33    63   1
    65    36    64   1
    66    36    65   1
    67    37    66   1
    68    37    67   1
@<TRIPOS>SUBSTRUCTURE
     1  ACE      1

