@<TRIPOS>MOLECULE
3s8o_ligand_028
    67    68
SMALL
GAST_HUCK
****
This file was generated by PARSER (from files_GN.cpp)

@<TRIPOS>ATOM
      1 C          10.6830   -8.2110    0.7786 C.2         1 ACE       0.1753
      2 O          11.4188   -7.5925    0.0210 O.2         1 ACE      -0.3972
      3 CH3        10.9225   -8.0685    2.1966 C.3         1 ACE       0.0258
      4 N           9.6842   -8.9696    0.3333 N.am        1 ACE      -0.2628
      5 CA          9.2600   -9.1246   -1.0401 C.3         1 ACE       0.1465
      6 C           7.8223   -8.8443   -1.1943 C.2         1 ACE       0.2045
      7 O           7.2646   -9.1605   -2.2401 O.2         1 ACE      -0.3944
      8 CB          9.6872  -10.5497   -1.5430 C.3         1 ACE       0.0400
      9 CG         11.1286  -10.6940   -1.9065 C.ar        1 ACE      -0.0004
     10 CD1        11.8893  -11.8193   -1.4996 C.ar        1 ACE      -0.0239
     11 CD2        11.7387   -9.7539   -2.7698 C.ar        1 ACE      -0.0239
     12 CE1        13.2243  -11.9783   -1.9177 C.ar        1 ACE       0.0115
     13 CE2        13.0760   -9.9128   -3.1882 C.ar        1 ACE       0.0115
     14 CZ         13.8354  -11.0159   -2.7471 C.ar        1 ACE       0.1728
     15 OH         15.0998  -11.2093   -3.2381 O.3         1 ACE      -0.2040
     16 P          16.2107  -10.4341   -2.4705 P.3         1 ACE       0.1348
     17 O1P        17.3976  -10.5115   -3.2852 O.co2       1 ACE      -0.6653
     18 O2P        15.9209   -9.0315   -2.3172 O.co2       1 ACE      -0.6653
     19 O3P        16.5252  -11.0305   -1.1899 O.co2       1 ACE      -0.6653
     20 O           4.7860   -9.2614    0.5751 O.2         1 ACE      -0.3419
     21 CD          3.9371   -5.2737   -1.3829 C.3         1 ACE      -0.0532
     22 CG          3.6910   -6.7822   -1.6424 C.3         1 ACE      -0.0516
     23 CE          4.8016   -5.0510   -0.1160 C.3         1 ACE      -0.0516
     24 CB          5.0244   -7.5842   -1.6694 C.3         1 ACE      -0.0199
     25 CH          6.1072   -5.8947   -0.1523 C.3         1 ACE      -0.0199
     26 N           7.2142   -8.0094   -0.3559 N.am        1 ACE      -0.2738
     27 C           5.2037   -8.1216    0.7701 C.2         1 ACE       0.2267
     28 CA          5.8778   -7.4389   -0.3491 C.3         1 ACE       0.1331
     29 N           5.1561   -7.6145    2.0002 N.am        1 ACE      -0.2608
     30 CA          4.5665   -8.1826    3.1888 C.3         1 ACE       0.1474
     31 C           4.9591   -9.5658    3.4499 C.2         1 ACE       0.2017
     32 O           4.1666  -10.4105    3.8481 O.2         1 ACE      -0.3945
     33 CB          3.0370   -7.8456    3.2747 C.3         1 ACE       0.0774
     34 CG          2.3035   -7.8255    2.0169 C.2         1 ACE       0.1781
     35 OD1         1.7371   -6.8088    1.6398 O.2         1 ACE      -0.3970
     36 ND2         2.2163   -8.8813    1.2396 N.am        1 ACE      -0.3007
     37 N           6.1930   -9.9604    3.2414 N.am        1 ACE      -0.2988
     38 H1         10.2012   -8.6317    2.7901 H           1 ACE       0.0467
     39 H2         10.8523   -7.0173    2.4824 H           1 ACE       0.0467
     40 H3         11.9230   -8.4287    2.4398 H           1 ACE       0.0467
     41 H4          9.1674   -9.4509    1.0012 H           1 ACE       0.1885
     42 H5          9.7512   -8.3784   -1.6734 H           1 ACE       0.0840
     43 H6          9.1395  -10.8098   -2.4510 H           1 ACE       0.0584
     44 H7          9.3970  -11.2890   -0.7886 H           1 ACE       0.0584
     45 H8         11.4701  -12.5476   -0.9165 H           1 ACE       0.0703
     46 H9         11.2013   -8.9547   -3.1194 H           1 ACE       0.0703
     47 H10        13.7573  -12.8019   -1.6256 H           1 ACE       0.0736
     48 H11        13.4869   -9.2268   -3.8242 H           1 ACE       0.0736
     49 H12         2.9754   -4.7648   -1.2622 H           1 ACE       0.0265
     50 H13         4.4441   -4.8325   -2.2466 H           1 ACE       0.0265
     51 H14         3.1733   -6.9012   -2.6026 H           1 ACE       0.0265
     52 H15         3.0347   -7.1824   -0.8617 H           1 ACE       0.0265
     53 H16         4.2093   -5.3076    0.7654 H           1 ACE       0.0265
     54 H17         5.0624   -3.9923   -0.0415 H           1 ACE       0.0265
     55 H18         5.6019   -7.2250   -2.5248 H           1 ACE       0.0277
     56 H19         4.7735   -8.6306   -1.8678 H           1 ACE       0.0277
     57 H20         6.6771   -5.7054    0.7607 H           1 ACE       0.0277
     58 H21         6.7195   -5.5245   -0.9805 H           1 ACE       0.0277
     59 H22         7.7456   -7.7532    0.4155 H           1 ACE       0.1839
     60 H23         5.5526   -6.7373    2.1247 H           1 ACE       0.1891
     61 H24         5.0241   -7.6227    4.0104 H           1 ACE       0.0828
     62 H25         2.9433   -6.8576    3.7406 H           1 ACE       0.0551
     63 H26         2.5339   -8.5447    3.9517 H           1 ACE       0.0551
     64 H27         1.7140   -8.8301    0.4096 H           1 ACE       0.1814
     65 H28         2.6672   -9.7044    1.4771 H           1 ACE       0.1814
     66 H29         6.4359  -10.8896    3.3684 H           1 ACE       0.1815
     67 H30         6.8554   -9.3351    2.9066 H           1 ACE       0.1815
@<TRIPOS>BOND
     1     1     2   2
     2     1     3   1
     3     4     1  am
     4     5     4   1
     5     6     5   1
     6     5     8   1
     7     6     7   2
     8    26     6  am
     9     8     9   1
    10     9    10  ar
    11     9    11  ar
    12    10    12  ar
    13    11    13  ar
    14    12    14  ar
    15    13    14  ar
    16    14    15   1
    17    15    16   1
    18    16    17  ar
    19    16    18  ar
    20    16    19  ar
    21    27    20   2
    22    22    21   1
    23    23    21   1
    24    24    22   1
    25    25    23   1
    26    28    24   1
    27    28    25   1
    28    28    26   1
    29    27    28   1
    30    27    29  am
    31    29    30   1
    32    30    31   1
    33    30    33   1
    34    31    32   2
    35    31    37  am
    36    33    34   1
    37    34    35   2
    38    34    36  am
    39     3    38   1
    40     3    39   1
    41     3    40   1
    42     4    41   1
    43     5    42   1
    44     8    43   1
    45     8    44   1
    46    10    45   1
    47    11    46   1
    48    12    47   1
    49    13    48   1
    50    21    49   1
    51    21    50   1
    52    22    51   1
    53    22    52   1
    54    23    53   1
    55    23    54   1
    56    24    55   1
    57    24    56   1
    58    25    57   1
    59    25    58   1
    60    26    59   1
    61    29    60   1
    62    30    61   1
    63    33    62   1
    64    33    63   1
    65    36    64   1
    66    36    65   1
    67    37    66   1
    68    37    67   1
@<TRIPOS>SUBSTRUCTURE
     1  ACE      1

