@<TRIPOS>MOLECULE
3s8o_ligand_067
    67    68
SMALL
GAST_HUCK
****
This file was generated by PARSER (from files_GN.cpp)

@<TRIPOS>ATOM
      1 C          10.2722   -8.4418    1.6071 C.2         1 ACE       0.1753
      2 O          11.1074   -7.5892    1.3129 O.2         1 ACE      -0.3972
      3 CH3        10.0528   -8.7094    3.0092 C.3         1 ACE       0.0258
      4 N           9.5811   -9.0935    0.6778 N.am        1 ACE      -0.2628
      5 CA          9.7072   -8.9557   -0.7517 C.3         1 ACE       0.1465
      6 C           8.4832   -8.3168   -1.2343 C.2         1 ACE       0.2045
      7 O           7.7955   -8.8312   -2.1093 O.2         1 ACE      -0.3944
      8 CB         10.0483  -10.3620   -1.3441 C.3         1 ACE       0.0400
      9 CG         10.2806  -10.5033   -2.8140 C.ar        1 ACE      -0.0004
     10 CD1        10.3202   -9.4165   -3.7248 C.ar        1 ACE      -0.0239
     11 CD2        10.5222  -11.8022   -3.3224 C.ar        1 ACE      -0.0239
     12 CE1        10.5923   -9.6281   -5.0891 C.ar        1 ACE       0.0115
     13 CE2        10.8082  -12.0115   -4.6803 C.ar        1 ACE       0.0115
     14 CZ         10.8289  -10.9284   -5.5812 C.ar        1 ACE       0.1728
     15 OH         11.1878  -11.1064   -6.8883 O.3         1 ACE      -0.2040
     16 P           9.9962  -11.3368   -7.8624 P.3         1 ACE       0.1348
     17 O1P        10.4895  -11.1354   -9.2026 O.co2       1 ACE      -0.6653
     18 O2P         9.5008  -12.6891   -7.7988 O.co2       1 ACE      -0.6653
     19 O3P         8.9126  -10.4022   -7.6757 O.co2       1 ACE      -0.6653
     20 O           4.8053   -7.3842   -0.6651 O.2         1 ACE      -0.3419
     21 CD          5.8604   -3.7687   -2.1434 C.3         1 ACE      -0.0532
     22 CG          5.5600   -5.1402   -2.7954 C.3         1 ACE      -0.0516
     23 CE          6.1086   -3.9053   -0.6236 C.3         1 ACE      -0.0516
     24 CB          6.6311   -6.2126   -2.4430 C.3         1 ACE      -0.0199
     25 CH          7.2274   -4.9374   -0.3351 C.3         1 ACE      -0.0199
     26 N           8.1275   -7.1517   -0.6948 N.am        1 ACE      -0.2738
     27 C           5.8354   -7.0120   -0.1190 C.2         1 ACE       0.2267
     28 CA          6.9189   -6.3754   -0.9013 C.3         1 ACE       0.1331
     29 N           6.0047   -7.2154    1.1826 N.am        1 ACE      -0.2608
     30 CA          5.1061   -7.7334    2.1780 C.3         1 ACE       0.1474
     31 C           4.8645   -9.1649    2.0186 C.2         1 ACE       0.2017
     32 O           4.2506   -9.5902    1.0552 O.2         1 ACE      -0.3945
     33 CB          3.8280   -6.8501    2.3923 C.3         1 ACE       0.0774
     34 CG          2.5490   -7.4122    1.9979 C.2         1 ACE       0.1781
     35 OD1         1.8771   -6.9010    1.1073 O.2         1 ACE      -0.3970
     36 ND2         2.0366   -8.4446    2.6312 N.am        1 ACE      -0.3007
     37 N           5.2922  -10.0470    2.9027 N.am        1 ACE      -0.2988
     38 H1          9.3108   -9.4980    3.1684 H           1 ACE       0.0467
     39 H2          9.7038   -7.8015    3.5114 H           1 ACE       0.0467
     40 H3         10.9911   -9.0255    3.4767 H           1 ACE       0.0467
     41 H4          8.9332   -9.7453    0.9976 H           1 ACE       0.1885
     42 H5         10.5442   -8.2943   -1.0006 H           1 ACE       0.0840
     43 H6          9.2547  -11.0622   -1.0497 H           1 ACE       0.0584
     44 H7         10.9702  -10.6983   -0.8524 H           1 ACE       0.0584
     45 H8         10.1563   -8.4579   -3.4099 H           1 ACE       0.0703
     46 H9         10.5094  -12.6091   -2.6902 H           1 ACE       0.0703
     47 H10        10.6238   -8.8282   -5.7290 H           1 ACE       0.0736
     48 H11        11.0081  -12.9556   -5.0140 H           1 ACE       0.0736
     49 H12         5.0202   -3.0942   -2.3159 H           1 ACE       0.0265
     50 H13         6.7443   -3.3359   -2.6162 H           1 ACE       0.0265
     51 H14         5.5206   -5.0182   -3.8827 H           1 ACE       0.0265
     52 H15         4.5735   -5.4882   -2.4677 H           1 ACE       0.0265
     53 H16         5.1825   -4.2013   -0.1188 H           1 ACE       0.0265
     54 H17         6.4053   -2.9274   -0.2257 H           1 ACE       0.0265
     55 H18         7.5598   -5.9400   -2.9571 H           1 ACE       0.0277
     56 H19         6.3086   -7.1657   -2.8742 H           1 ACE       0.0277
     57 H20         7.3985   -4.9688    0.7464 H           1 ACE       0.0277
     58 H21         8.1493   -4.5592   -0.7829 H           1 ACE       0.0277
     59 H22         8.7439   -6.7954   -0.0367 H           1 ACE       0.1839
     60 H23         6.8615   -6.9284    1.5334 H           1 ACE       0.1891
     61 H24         5.6774   -7.6127    3.1032 H           1 ACE       0.0828
     62 H25         3.9801   -5.8952    1.8711 H           1 ACE       0.0551
     63 H26         3.7540   -6.5899    3.4548 H           1 ACE       0.0551
     64 H27         1.1641   -8.7856    2.3841 H           1 ACE       0.1814
     65 H28         2.5268   -8.8607    3.3604 H           1 ACE       0.1814
     66 H29         5.1217  -10.9946    2.7716 H           1 ACE       0.1815
     67 H30         5.7728   -9.7521    3.6930 H           1 ACE       0.1815
@<TRIPOS>BOND
     1     1     2   2
     2     1     3   1
     3     4     1  am
     4     5     4   1
     5     6     5   1
     6     5     8   1
     7     6     7   2
     8    26     6  am
     9     8     9   1
    10     9    10  ar
    11     9    11  ar
    12    10    12  ar
    13    11    13  ar
    14    12    14  ar
    15    13    14  ar
    16    14    15   1
    17    15    16   1
    18    16    17  ar
    19    16    18  ar
    20    16    19  ar
    21    27    20   2
    22    22    21   1
    23    23    21   1
    24    24    22   1
    25    25    23   1
    26    28    24   1
    27    28    25   1
    28    28    26   1
    29    27    28   1
    30    27    29  am
    31    29    30   1
    32    30    31   1
    33    30    33   1
    34    31    32   2
    35    31    37  am
    36    33    34   1
    37    34    35   2
    38    34    36  am
    39     3    38   1
    40     3    39   1
    41     3    40   1
    42     4    41   1
    43     5    42   1
    44     8    43   1
    45     8    44   1
    46    10    45   1
    47    11    46   1
    48    12    47   1
    49    13    48   1
    50    21    49   1
    51    21    50   1
    52    22    51   1
    53    22    52   1
    54    23    53   1
    55    23    54   1
    56    24    55   1
    57    24    56   1
    58    25    57   1
    59    25    58   1
    60    26    59   1
    61    29    60   1
    62    30    61   1
    63    33    62   1
    64    33    63   1
    65    36    64   1
    66    36    65   1
    67    37    66   1
    68    37    67   1
@<TRIPOS>SUBSTRUCTURE
     1  ACE      1

