@<TRIPOS>MOLECULE
3s8o_ligand_045
    67    68
SMALL
GAST_HUCK
****
This file was generated by PARSER (from files_GN.cpp)

@<TRIPOS>ATOM
      1 C           9.9281  -11.8093   -2.8357 C.2         1 ACE       0.1753
      2 O           9.7677  -12.0422   -4.0254 O.2         1 ACE      -0.3972
      3 CH3         9.6928  -12.8674   -1.8835 C.3         1 ACE       0.0258
      4 N          10.3335  -10.6201   -2.4123 N.am        1 ACE      -0.2628
      5 CA         10.5779   -9.4348   -3.1924 C.3         1 ACE       0.1465
      6 C          11.9639   -9.4293   -3.6732 C.2         1 ACE       0.2045
      7 O          12.6470  -10.4429   -3.5634 O.2         1 ACE      -0.3944
      8 CB         10.1946   -8.2031   -2.2999 C.3         1 ACE       0.0400
      9 CG          8.7298   -8.0666   -2.0249 C.ar        1 ACE      -0.0004
     10 CD1         8.0278   -6.9119   -2.4465 C.ar        1 ACE      -0.0239
     11 CD2         8.0094   -9.0572   -1.3142 C.ar        1 ACE      -0.0239
     12 CE1         6.6551   -6.7602   -2.1784 C.ar        1 ACE       0.0115
     13 CE2         6.6299   -8.9195   -1.0753 C.ar        1 ACE       0.0115
     14 CZ          5.9358   -7.7739   -1.5197 C.ar        1 ACE       0.1728
     15 OH          4.6134   -7.5876   -1.2167 O.3         1 ACE      -0.2040
     16 P           3.6211   -8.2690   -2.2113 P.3         1 ACE       0.1348
     17 O1P         3.8421   -9.6870   -2.3160 O.co2       1 ACE      -0.6653
     18 O2P         2.2823   -8.0837   -1.7034 O.co2       1 ACE      -0.6653
     19 O3P         3.6435   -7.6759   -3.5208 O.co2       1 ACE      -0.6653
     20 O          14.6571   -7.8666   -2.6869 O.2         1 ACE      -0.3419
     21 CD         15.3832   -7.1889   -7.2780 C.3         1 ACE      -0.0532
     22 CG         15.2384   -6.3198   -6.0038 C.3         1 ACE      -0.0516
     23 CE         15.2605   -8.6967   -6.9631 C.3         1 ACE      -0.0516
     24 CB         13.9355   -6.6574   -5.2350 C.3         1 ACE      -0.0199
     25 CH         13.9855   -9.0285   -6.1316 C.3         1 ACE      -0.0199
     26 N          12.4673   -8.3739   -4.3163 N.am        1 ACE      -0.2738
     27 C          14.7731   -8.4924   -3.7341 C.2         1 ACE       0.2267
     28 CA         13.8184   -8.1774   -4.8209 C.3         1 ACE       0.1331
     29 N          15.6629   -9.4843   -3.8019 N.am        1 ACE      -0.2608
     30 CA         16.5243   -9.9958   -2.7569 C.3         1 ACE       0.1474
     31 C          15.7856  -10.8568   -1.8361 C.2         1 ACE       0.2017
     32 O          14.5729  -10.7935   -1.7190 O.2         1 ACE      -0.3945
     33 CB         17.4626   -8.9056   -2.1242 C.3         1 ACE       0.0774
     34 CG         17.6948   -8.9587   -0.6867 C.2         1 ACE       0.1781
     35 OD1        17.2233   -8.1087    0.0591 O.2         1 ACE      -0.3970
     36 ND2        18.3943   -9.9291   -0.1434 N.am        1 ACE      -0.3007
     37 N          16.3837  -11.7932   -1.1285 N.am        1 ACE      -0.2988
     38 H1          9.9001  -12.5580   -0.8598 H           1 ACE       0.0467
     39 H2         10.3208  -13.7191   -2.1184 H           1 ACE       0.0467
     40 H3          8.6571  -13.1801   -1.9476 H           1 ACE       0.0467
     41 H4         10.5192  -10.5401   -1.4622 H           1 ACE       0.1885
     42 H5          9.9361   -9.4152   -4.0771 H           1 ACE       0.0840
     43 H6         10.5525   -7.2807   -2.7744 H           1 ACE       0.0584
     44 H7         10.7194   -8.2602   -1.3378 H           1 ACE       0.0584
     45 H8          8.5160   -6.1600   -2.9443 H           1 ACE       0.0703
     46 H9          8.4761   -9.8867   -0.9459 H           1 ACE       0.0703
     47 H10         6.1812   -5.9025   -2.4733 H           1 ACE       0.0736
     48 H11         6.1270   -9.6579   -0.5681 H           1 ACE       0.0736
     49 H12        16.3511   -6.9895   -7.7427 H           1 ACE       0.0265
     50 H13        14.6044   -6.9074   -7.9890 H           1 ACE       0.0265
     51 H14        15.2332   -5.2640   -6.2891 H           1 ACE       0.0265
     52 H15        16.1054   -6.4794   -5.3489 H           1 ACE       0.0265
     53 H16        16.1578   -9.0237   -6.4291 H           1 ACE       0.0265
     54 H17        15.2277   -9.2508   -7.9044 H           1 ACE       0.0265
     55 H18        13.0892   -6.3884   -5.8769 H           1 ACE       0.0277
     56 H19        13.8708   -6.0117   -4.3537 H           1 ACE       0.0277
     57 H20        14.0026  -10.0953   -5.8974 H           1 ACE       0.0277
     58 H21        13.1189   -8.8595   -6.7834 H           1 ACE       0.0277
     59 H22        11.8589   -7.6252   -4.4229 H           1 ACE       0.1839
     60 H23        15.7060   -9.9620   -4.6445 H           1 ACE       0.1891
     61 H24        17.1755  -10.6846   -3.3104 H           1 ACE       0.0828
     62 H25        17.0881   -7.9067   -2.3674 H           1 ACE       0.0551
     63 H26        18.4425   -8.9678   -2.6099 H           1 ACE       0.0551
     64 H27        18.5331   -9.9529    0.8146 H           1 ACE       0.1814
     65 H28        18.7777  -10.6269   -0.6997 H           1 ACE       0.1814
     66 H29        15.8612  -12.3572   -0.5400 H           1 ACE       0.1815
     67 H30        17.3372  -11.9417   -1.2122 H           1 ACE       0.1815
@<TRIPOS>BOND
     1     1     2   2
     2     1     3   1
     3     4     1  am
     4     5     4   1
     5     6     5   1
     6     5     8   1
     7     6     7   2
     8    26     6  am
     9     8     9   1
    10     9    10  ar
    11     9    11  ar
    12    10    12  ar
    13    11    13  ar
    14    12    14  ar
    15    13    14  ar
    16    14    15   1
    17    15    16   1
    18    16    17  ar
    19    16    18  ar
    20    16    19  ar
    21    27    20   2
    22    22    21   1
    23    23    21   1
    24    24    22   1
    25    25    23   1
    26    28    24   1
    27    28    25   1
    28    28    26   1
    29    27    28   1
    30    27    29  am
    31    29    30   1
    32    30    31   1
    33    30    33   1
    34    31    32   2
    35    31    37  am
    36    33    34   1
    37    34    35   2
    38    34    36  am
    39     3    38   1
    40     3    39   1
    41     3    40   1
    42     4    41   1
    43     5    42   1
    44     8    43   1
    45     8    44   1
    46    10    45   1
    47    11    46   1
    48    12    47   1
    49    13    48   1
    50    21    49   1
    51    21    50   1
    52    22    51   1
    53    22    52   1
    54    23    53   1
    55    23    54   1
    56    24    55   1
    57    24    56   1
    58    25    57   1
    59    25    58   1
    60    26    59   1
    61    29    60   1
    62    30    61   1
    63    33    62   1
    64    33    63   1
    65    36    64   1
    66    36    65   1
    67    37    66   1
    68    37    67   1
@<TRIPOS>SUBSTRUCTURE
     1  ACE      1

