@<TRIPOS>MOLECULE
3s8o_ligand_013
    67    68
SMALL
GAST_HUCK
****
This file was generated by PARSER (from files_GN.cpp)

@<TRIPOS>ATOM
      1 C          12.7744   -1.2406    7.4500 C.2         1 ACE       0.1753
      2 O          12.3039   -1.0334    6.3389 O.2         1 ACE      -0.3972
      3 CH3        13.8542   -0.3938    7.8959 C.3         1 ACE       0.0258
      4 N          12.3224   -2.2288    8.2209 N.am        1 ACE      -0.2628
      5 CA         11.2633   -3.1585    7.9446 C.3         1 ACE       0.1465
      6 C          11.6823   -4.0640    6.8762 C.2         1 ACE       0.2045
      7 O          11.3166   -3.8705    5.7250 O.2         1 ACE      -0.3944
      8 CB          9.9110   -2.4057    7.7361 C.3         1 ACE       0.0400
      9 CG          8.7453   -3.2904    7.4732 C.ar        1 ACE      -0.0004
     10 CD1         8.3930   -3.6412    6.1476 C.ar        1 ACE      -0.0239
     11 CD2         7.9028   -3.7267    8.5277 C.ar        1 ACE      -0.0239
     12 CE1         7.2317   -4.3908    5.8806 C.ar        1 ACE       0.0115
     13 CE2         6.7282   -4.4603    8.2591 C.ar        1 ACE       0.0115
     14 CZ          6.3925   -4.8100    6.9347 C.ar        1 ACE       0.1728
     15 OH          5.2092   -5.4328    6.6378 O.3         1 ACE      -0.2040
     16 P           5.3184   -6.9802    6.5152 P.3         1 ACE       0.1348
     17 O1P         6.6089   -7.5042    6.1351 O.co2       1 ACE      -0.6653
     18 O2P         4.8494   -7.6510    7.7056 O.co2       1 ACE      -0.6653
     19 O3P         4.4077   -7.3664    5.4607 O.co2       1 ACE      -0.6653
     20 O          12.3360   -6.4070    4.1638 O.2         1 ACE      -0.3419
     21 CD         16.1851   -5.5475    7.1525 C.3         1 ACE      -0.0532
     22 CG         15.1862   -6.3775    7.9954 C.3         1 ACE      -0.0516
     23 CE         15.4584   -4.4558    6.3301 C.3         1 ACE      -0.0516
     24 CB         14.0414   -6.9691    7.1241 C.3         1 ACE      -0.0199
     25 CH         14.3430   -5.0737    5.4440 C.3         1 ACE      -0.0199
     26 N          12.5629   -5.0225    7.1563 N.am        1 ACE      -0.2738
     27 C          12.3068   -6.5939    5.3765 C.2         1 ACE       0.2267
     28 CA         13.2724   -5.9059    6.2562 C.3         1 ACE       0.1331
     29 N          11.4488   -7.4793    5.8791 N.am        1 ACE      -0.2608
     30 CA         10.5404   -8.3381    5.1671 C.3         1 ACE       0.1474
     31 C          11.2820   -9.2930    4.3411 C.2         1 ACE       0.2017
     32 O          11.0482   -9.4006    3.1437 O.2         1 ACE      -0.3945
     33 CB          9.4369   -7.5010    4.4315 C.3         1 ACE       0.0774
     34 CG          8.4958   -8.3269    3.6888 C.2         1 ACE       0.1781
     35 OD1         7.5956   -8.9222    4.2695 O.2         1 ACE      -0.3970
     36 ND2         8.6103   -8.4903    2.3874 N.am        1 ACE      -0.3007
     37 N          12.2599  -10.0127    4.8561 N.am        1 ACE      -0.2988
     38 H1         14.2102   -0.6770    8.8921 H           1 ACE       0.0467
     39 H2         13.5109    0.6448    7.9358 H           1 ACE       0.0467
     40 H3         14.6945   -0.4649    7.1968 H           1 ACE       0.0467
     41 H4         12.7657   -2.3201    9.0788 H           1 ACE       0.1885
     42 H5         11.1398   -3.7537    8.8550 H           1 ACE       0.0840
     43 H6         10.0115   -1.6801    6.9231 H           1 ACE       0.0584
     44 H7          9.6991   -1.8219    8.6354 H           1 ACE       0.0584
     45 H8          8.9736   -3.3308    5.3609 H           1 ACE       0.0703
     46 H9          8.1126   -3.4724    9.4976 H           1 ACE       0.0703
     47 H10         6.9876   -4.6151    4.9119 H           1 ACE       0.0736
     48 H11         6.1107   -4.7352    9.0288 H           1 ACE       0.0736
     49 H12        16.7268   -6.2155    6.4755 H           1 ACE       0.0265
     50 H13        16.9115   -5.0799    7.8223 H           1 ACE       0.0265
     51 H14        14.7553   -5.7475    8.7789 H           1 ACE       0.0265
     52 H15        15.7166   -7.2013    8.4810 H           1 ACE       0.0265
     53 H16        16.1900   -3.9448    5.6956 H           1 ACE       0.0265
     54 H17        15.0277   -3.7120    7.0079 H           1 ACE       0.0265
     55 H18        13.3353   -7.4676    7.7965 H           1 ACE       0.0277
     56 H19        14.4670   -7.7343    6.4658 H           1 ACE       0.0277
     57 H20        14.8313   -5.7222    4.7058 H           1 ACE       0.0277
     58 H21        13.8648   -4.2611    4.8871 H           1 ACE       0.0277
     59 H22        12.8015   -5.1025    8.0904 H           1 ACE       0.1839
     60 H23        11.4755   -7.5973    6.8411 H           1 ACE       0.1891
     61 H24        10.0213   -8.9204    5.9372 H           1 ACE       0.0828
     62 H25         9.9150   -6.7772    3.7604 H           1 ACE       0.0551
     63 H26         8.8682   -6.9258    5.1688 H           1 ACE       0.0551
     64 H27         7.9936   -9.0728    1.9154 H           1 ACE       0.1814
     65 H28         9.3248   -8.0428    1.8952 H           1 ACE       0.1814
     66 H29        12.7557  -10.6295    4.2940 H           1 ACE       0.1815
     67 H30        12.5133   -9.9123    5.7922 H           1 ACE       0.1815
@<TRIPOS>BOND
     1     1     2   2
     2     1     3   1
     3     4     1  am
     4     5     4   1
     5     6     5   1
     6     5     8   1
     7     6     7   2
     8    26     6  am
     9     8     9   1
    10     9    10  ar
    11     9    11  ar
    12    10    12  ar
    13    11    13  ar
    14    12    14  ar
    15    13    14  ar
    16    14    15   1
    17    15    16   1
    18    16    17  ar
    19    16    18  ar
    20    16    19  ar
    21    27    20   2
    22    22    21   1
    23    23    21   1
    24    24    22   1
    25    25    23   1
    26    28    24   1
    27    28    25   1
    28    28    26   1
    29    27    28   1
    30    27    29  am
    31    29    30   1
    32    30    31   1
    33    30    33   1
    34    31    32   2
    35    31    37  am
    36    33    34   1
    37    34    35   2
    38    34    36  am
    39     3    38   1
    40     3    39   1
    41     3    40   1
    42     4    41   1
    43     5    42   1
    44     8    43   1
    45     8    44   1
    46    10    45   1
    47    11    46   1
    48    12    47   1
    49    13    48   1
    50    21    49   1
    51    21    50   1
    52    22    51   1
    53    22    52   1
    54    23    53   1
    55    23    54   1
    56    24    55   1
    57    24    56   1
    58    25    57   1
    59    25    58   1
    60    26    59   1
    61    29    60   1
    62    30    61   1
    63    33    62   1
    64    33    63   1
    65    36    64   1
    66    36    65   1
    67    37    66   1
    68    37    67   1
@<TRIPOS>SUBSTRUCTURE
     1  ACE      1

