@<TRIPOS>MOLECULE
3s8o_ligand_052
    67    68
SMALL
GAST_HUCK
****
This file was generated by PARSER (from files_GN.cpp)

@<TRIPOS>ATOM
      1 C           7.0382   -7.6823   -2.0468 C.2         1 ACE       0.1753
      2 O           7.2249   -8.7720   -2.5728 O.2         1 ACE      -0.3972
      3 CH3         5.9506   -6.8656   -2.5324 C.3         1 ACE       0.0258
      4 N           7.8275   -7.2325   -1.0812 N.am        1 ACE      -0.2628
      5 CA          8.9886   -7.8859   -0.5456 C.3         1 ACE       0.1465
      6 C           9.0625   -7.5532    0.8755 C.2         1 ACE       0.2045
      7 O           9.8851   -6.7412    1.2792 O.2         1 ACE      -0.3944
      8 CB         10.2584   -7.5718   -1.4089 C.3         1 ACE       0.0400
      9 CG         10.6713   -6.1371   -1.4766 C.ar        1 ACE      -0.0004
     10 CD1         9.8422   -5.1690   -2.0914 C.ar        1 ACE      -0.0239
     11 CD2        11.8986   -5.7081   -0.9163 C.ar        1 ACE      -0.0239
     12 CE1        10.1858   -3.8062   -2.0684 C.ar        1 ACE       0.0115
     13 CE2        12.2502   -4.3458   -0.9024 C.ar        1 ACE       0.0115
     14 CZ         11.3742   -3.3799   -1.4402 C.ar        1 ACE       0.1728
     15 OH         11.6901   -2.0468   -1.4188 O.3         1 ACE      -0.2040
     16 P          11.2026   -1.3122   -0.1330 P.3         1 ACE       0.1348
     17 O1P        11.9104   -1.7553    1.0367 O.co2       1 ACE      -0.6653
     18 O2P        11.4661    0.0991   -0.3032 O.co2       1 ACE      -0.6653
     19 O3P         9.7837   -1.4442    0.0875 O.co2       1 ACE      -0.6653
     20 O           9.4655   -9.5859    3.8463 O.2         1 ACE      -0.3419
     21 CD          6.1138   -6.8787    5.3003 C.3         1 ACE      -0.0532
     22 CG          6.4042   -8.3860    5.1013 C.3         1 ACE      -0.0516
     23 CE          7.2900   -5.9975    4.8095 C.3         1 ACE      -0.0516
     24 CB          6.8015   -8.6956    3.6318 C.3         1 ACE      -0.0199
     25 CH          7.7147   -6.3528    3.3579 C.3         1 ACE      -0.0199
     26 N           8.2075   -8.1242    1.7246 N.am        1 ACE      -0.2738
     27 C           9.2797   -8.3743    3.8081 C.2         1 ACE       0.2267
     28 CA          8.0557   -7.8786    3.1451 C.3         1 ACE       0.1331
     29 N          10.2709   -7.5548    4.1447 N.am        1 ACE      -0.2608
     30 CA         11.5998   -7.8628    4.6068 C.3         1 ACE       0.1474
     31 C          12.4780   -8.5106    3.6310 C.2         1 ACE       0.2017
     32 O          12.0481   -9.0860    2.6431 O.2         1 ACE      -0.3945
     33 CB         11.6051   -8.5460    6.0108 C.3         1 ACE       0.0774
     34 CG         11.0871   -9.9027    6.1038 C.2         1 ACE       0.1781
     35 OD1        10.1025  -10.1460    6.7867 O.2         1 ACE      -0.3970
     36 ND2        11.6684  -10.9239    5.5127 N.am        1 ACE      -0.3007
     37 N          13.7798   -8.5209    3.8116 N.am        1 ACE      -0.2988
     38 H1          5.9000   -5.9067   -2.0122 H           1 ACE       0.0467
     39 H2          5.0047   -7.3890   -2.3849 H           1 ACE       0.0467
     40 H3          6.0852   -6.6710   -3.5980 H           1 ACE       0.0467
     41 H4          7.6315   -6.3442   -0.7403 H           1 ACE       0.1885
     42 H5          8.8498   -8.9719   -0.5930 H           1 ACE       0.0840
     43 H6         10.0901   -7.9252   -2.4297 H           1 ACE       0.0584
     44 H7         11.0788   -8.1774   -1.0105 H           1 ACE       0.0584
     45 H8          8.9715   -5.4447   -2.5491 H           1 ACE       0.0703
     46 H9         12.5350   -6.3816   -0.4857 H           1 ACE       0.0703
     47 H10         9.5612   -3.1186   -2.4966 H           1 ACE       0.0736
     48 H11        13.1341   -4.0547   -0.4779 H           1 ACE       0.0736
     49 H12         5.9310   -6.6798    6.3602 H           1 ACE       0.0265
     50 H13         5.2065   -6.6118    4.7491 H           1 ACE       0.0265
     51 H14         5.5106   -8.9599    5.3632 H           1 ACE       0.0265
     52 H15         7.2094   -8.6933    5.7753 H           1 ACE       0.0265
     53 H16         8.1419   -6.1220    5.4795 H           1 ACE       0.0265
     54 H17         6.9857   -4.9477    4.8507 H           1 ACE       0.0265
     55 H18         5.9438   -8.4634    2.9943 H           1 ACE       0.0277
     56 H19         6.9759   -9.7726    3.5364 H           1 ACE       0.0277
     57 H20         8.5613   -5.7185    3.0870 H           1 ACE       0.0277
     58 H21         6.8928   -6.0703    2.6910 H           1 ACE       0.0277
     59 H22         7.6345   -8.8125    1.3502 H           1 ACE       0.1839
     60 H23        10.0925   -6.6101    4.0275 H           1 ACE       0.1891
     61 H24        12.0387   -6.8723    4.7651 H           1 ACE       0.0828
     62 H25        11.0342   -7.9017    6.6855 H           1 ACE       0.0551
     63 H26        12.6295   -8.5513    6.3895 H           1 ACE       0.0551
     64 H27        11.3006  -11.8153    5.6266 H           1 ACE       0.1814
     65 H28        12.4495  -10.8003    4.9500 H           1 ACE       0.1814
     66 H29        14.3580   -8.9858    3.1845 H           1 ACE       0.1815
     67 H30        14.1678   -8.0569    4.5704 H           1 ACE       0.1815
@<TRIPOS>BOND
     1     1     2   2
     2     1     3   1
     3     4     1  am
     4     5     4   1
     5     6     5   1
     6     5     8   1
     7     6     7   2
     8    26     6  am
     9     8     9   1
    10     9    10  ar
    11     9    11  ar
    12    10    12  ar
    13    11    13  ar
    14    12    14  ar
    15    13    14  ar
    16    14    15   1
    17    15    16   1
    18    16    17  ar
    19    16    18  ar
    20    16    19  ar
    21    27    20   2
    22    22    21   1
    23    23    21   1
    24    24    22   1
    25    25    23   1
    26    28    24   1
    27    28    25   1
    28    28    26   1
    29    27    28   1
    30    27    29  am
    31    29    30   1
    32    30    31   1
    33    30    33   1
    34    31    32   2
    35    31    37  am
    36    33    34   1
    37    34    35   2
    38    34    36  am
    39     3    38   1
    40     3    39   1
    41     3    40   1
    42     4    41   1
    43     5    42   1
    44     8    43   1
    45     8    44   1
    46    10    45   1
    47    11    46   1
    48    12    47   1
    49    13    48   1
    50    21    49   1
    51    21    50   1
    52    22    51   1
    53    22    52   1
    54    23    53   1
    55    23    54   1
    56    24    55   1
    57    24    56   1
    58    25    57   1
    59    25    58   1
    60    26    59   1
    61    29    60   1
    62    30    61   1
    63    33    62   1
    64    33    63   1
    65    36    64   1
    66    36    65   1
    67    37    66   1
    68    37    67   1
@<TRIPOS>SUBSTRUCTURE
     1  ACE      1

