@<TRIPOS>MOLECULE
3s8o_ligand_059
    67    68
SMALL
GAST_HUCK
****
This file was generated by PARSER (from files_GN.cpp)

@<TRIPOS>ATOM
      1 C           4.9592   -5.5518    2.1777 C.2         1 ACE       0.1753
      2 O           3.9418   -4.8692    2.1666 O.2         1 ACE      -0.3972
      3 CH3         6.1118   -5.0227    1.5017 C.3         1 ACE       0.0258
      4 N           5.0594   -6.6902    2.8653 N.am        1 ACE      -0.2628
      5 CA          4.0753   -7.3635    3.6751 C.3         1 ACE       0.1465
      6 C           3.0104   -7.9506    2.8493 C.2         1 ACE       0.2045
      7 O           2.8901   -9.1705    2.8281 O.2         1 ACE      -0.3944
      8 CB          3.5259   -6.5502    4.8929 C.3         1 ACE       0.0400
      9 CG          4.5969   -5.9083    5.7245 C.ar        1 ACE      -0.0004
     10 CD1         5.1937   -4.6898    5.3209 C.ar        1 ACE      -0.0239
     11 CD2         5.0288   -6.4894    6.9438 C.ar        1 ACE      -0.0239
     12 CE1         6.2085   -4.0914    6.0860 C.ar        1 ACE       0.0115
     13 CE2         6.0300   -5.8807    7.7195 C.ar        1 ACE       0.0115
     14 CZ          6.6146   -4.6638    7.3084 C.ar        1 ACE       0.1728
     15 OH          7.6276   -4.1128    8.0456 O.3         1 ACE      -0.2040
     16 P           7.1691   -3.1066    9.1395 P.3         1 ACE       0.1348
     17 O1P         8.2557   -2.9626   10.0810 O.co2       1 ACE      -0.6653
     18 O2P         6.8873   -1.8021    8.5958 O.co2       1 ACE      -0.6653
     19 O3P         6.0311   -3.5807    9.8889 O.co2       1 ACE      -0.6653
     20 O           1.7285   -6.2433   -0.8443 O.2         1 ACE      -0.3419
     21 CD         -1.7826   -7.8363    0.5861 C.3         1 ACE      -0.0532
     22 CG         -1.1477   -6.4247    0.5425 C.3         1 ACE      -0.0516
     23 CE         -0.7386   -8.9461    0.2990 C.3         1 ACE      -0.0516
     24 CB          0.1199   -6.3358    1.4288 C.3         1 ACE      -0.0199
     25 CH          0.4969   -8.8279    1.2187 C.3         1 ACE      -0.0199
     26 N           2.2507   -7.1683    2.0891 N.am        1 ACE      -0.2738
     27 C           1.8736   -7.2699   -0.1931 C.2         1 ACE       0.2267
     28 CA          1.2185   -7.4302    1.1179 C.3         1 ACE       0.1331
     29 N           2.6591   -8.2389   -0.6731 N.am        1 ACE      -0.2608
     30 CA          3.2729   -8.3055   -1.9784 C.3         1 ACE       0.1474
     31 C           3.2427   -9.6837   -2.4685 C.2         1 ACE       0.2017
     32 O           3.7696  -10.5854   -1.8282 O.2         1 ACE      -0.3945
     33 CB          4.7015   -7.6694   -1.9488 C.3         1 ACE       0.0774
     34 CG          5.7694   -8.4856   -1.3851 C.2         1 ACE       0.1781
     35 OD1         6.5809   -9.0320   -2.1182 O.2         1 ACE      -0.3970
     36 ND2         5.8901   -8.6717   -0.0899 N.am        1 ACE      -0.3007
     37 N           2.6452  -10.0268   -3.5940 N.am        1 ACE      -0.2988
     38 H1          6.9757   -5.6849    1.5804 H           1 ACE       0.0467
     39 H2          6.3742   -4.0587    1.9450 H           1 ACE       0.0467
     40 H3          5.8866   -4.8714    0.4417 H           1 ACE       0.0467
     41 H4          5.9243   -7.1204    2.8255 H           1 ACE       0.1885
     42 H5          4.6283   -8.1924    4.1223 H           1 ACE       0.0840
     43 H6          2.9529   -7.2449    5.5169 H           1 ACE       0.0584
     44 H7          2.8209   -5.7911    4.5562 H           1 ACE       0.0584
     45 H8          4.8911   -4.2222    4.4658 H           1 ACE       0.0703
     46 H9          4.6219   -7.3704    7.2650 H           1 ACE       0.0703
     47 H10         6.6448   -3.2270    5.7599 H           1 ACE       0.0736
     48 H11         6.3420   -6.3236    8.5851 H           1 ACE       0.0736
     49 H12        -2.5887   -7.8876   -0.1483 H           1 ACE       0.0265
     50 H13        -2.2182   -7.9989    1.5755 H           1 ACE       0.0265
     51 H14        -1.8762   -5.6925    0.8921 H           1 ACE       0.0265
     52 H15        -0.9012   -6.1676   -0.4895 H           1 ACE       0.0265
     53 H16        -0.4285   -8.8837   -0.7487 H           1 ACE       0.0265
     54 H17        -1.2118   -9.9212    0.4456 H           1 ACE       0.0265
     55 H18        -0.1937   -6.4386    2.4682 H           1 ACE       0.0277
     56 H19         0.5494   -5.3372    1.3230 H           1 ACE       0.0277
     57 H20         1.1782   -9.6475    0.9616 H           1 ACE       0.0277
     58 H21         0.1752   -8.9904    2.2499 H           1 ACE       0.0277
     59 H22         2.4708   -6.2333    2.1525 H           1 ACE       0.1839
     60 H23         2.8210   -8.9936   -0.0897 H           1 ACE       0.1891
     61 H24         2.6922   -7.6969   -2.6841 H           1 ACE       0.0828
     62 H25         4.6597   -6.7253   -1.3998 H           1 ACE       0.0551
     63 H26         4.9688   -7.4056   -2.9785 H           1 ACE       0.0551
     64 H27         6.5986   -9.2426    0.2528 H           1 ACE       0.1814
     65 H28         5.2722   -8.2485    0.5275 H           1 ACE       0.1814
     66 H29         2.6659  -10.9550   -3.8990 H           1 ACE       0.1815
     67 H30         2.1950   -9.3560   -4.1328 H           1 ACE       0.1815
@<TRIPOS>BOND
     1     1     2   2
     2     1     3   1
     3     4     1  am
     4     5     4   1
     5     6     5   1
     6     5     8   1
     7     6     7   2
     8    26     6  am
     9     8     9   1
    10     9    10  ar
    11     9    11  ar
    12    10    12  ar
    13    11    13  ar
    14    12    14  ar
    15    13    14  ar
    16    14    15   1
    17    15    16   1
    18    16    17  ar
    19    16    18  ar
    20    16    19  ar
    21    27    20   2
    22    22    21   1
    23    23    21   1
    24    24    22   1
    25    25    23   1
    26    28    24   1
    27    28    25   1
    28    28    26   1
    29    27    28   1
    30    27    29  am
    31    29    30   1
    32    30    31   1
    33    30    33   1
    34    31    32   2
    35    31    37  am
    36    33    34   1
    37    34    35   2
    38    34    36  am
    39     3    38   1
    40     3    39   1
    41     3    40   1
    42     4    41   1
    43     5    42   1
    44     8    43   1
    45     8    44   1
    46    10    45   1
    47    11    46   1
    48    12    47   1
    49    13    48   1
    50    21    49   1
    51    21    50   1
    52    22    51   1
    53    22    52   1
    54    23    53   1
    55    23    54   1
    56    24    55   1
    57    24    56   1
    58    25    57   1
    59    25    58   1
    60    26    59   1
    61    29    60   1
    62    30    61   1
    63    33    62   1
    64    33    63   1
    65    36    64   1
    66    36    65   1
    67    37    66   1
    68    37    67   1
@<TRIPOS>SUBSTRUCTURE
     1  ACE      1

