@<TRIPOS>MOLECULE
3s8o_ligand_046
    67    68
SMALL
GAST_HUCK
****
This file was generated by PARSER (from files_GN.cpp)

@<TRIPOS>ATOM
      1 C          11.6017   -5.4043   -4.5365 C.2         1 ACE       0.1753
      2 O          12.7961   -5.6580   -4.5819 O.2         1 ACE      -0.3972
      3 CH3        11.2089   -4.0392   -4.2699 C.3         1 ACE       0.0258
      4 N          10.6799   -6.3480   -4.7051 N.am        1 ACE      -0.2628
      5 CA         10.9143   -7.7567   -4.8787 C.3         1 ACE       0.1465
      6 C          10.7873   -8.0374   -6.3038 C.2         1 ACE       0.2045
      7 O          11.8077   -8.1097   -6.9879 O.2         1 ACE      -0.3944
      8 CB          9.9318   -8.6027   -4.0034 C.3         1 ACE       0.0400
      9 CG         10.1754   -8.6824   -2.5314 C.ar        1 ACE      -0.0004
     10 CD1         9.7979   -9.8625   -1.8429 C.ar        1 ACE      -0.0239
     11 CD2        10.6937   -7.6083   -1.7661 C.ar        1 ACE      -0.0239
     12 CE1         9.9234   -9.9623   -0.4479 C.ar        1 ACE       0.0115
     13 CE2        10.8397   -7.7141   -0.3720 C.ar        1 ACE       0.0115
     14 CZ         10.4243   -8.8790    0.2999 C.ar        1 ACE       0.1728
     15 OH         10.5285   -9.0149    1.6592 O.3         1 ACE      -0.2040
     16 P           9.3553   -8.3947    2.4747 P.3         1 ACE       0.1348
     17 O1P         9.8662   -7.3234    3.2961 O.co2       1 ACE      -0.6653
     18 O2P         8.2185   -7.9043    1.7294 O.co2       1 ACE      -0.6653
     19 O3P         8.8664   -9.3973    3.3927 O.co2       1 ACE      -0.6653
     20 O          10.6681   -9.6321   -9.5920 O.2         1 ACE      -0.3419
     21 CD          7.5292   -5.8295   -8.7061 C.3         1 ACE      -0.0532
     22 CG          9.0741   -5.7631   -8.6301 C.3         1 ACE      -0.0516
     23 CE          6.9673   -7.0495   -7.9391 C.3         1 ACE      -0.0516
     24 CB          9.7231   -7.0992   -9.0849 C.3         1 ACE      -0.0199
     25 CH          7.6634   -8.3761   -8.3624 C.3         1 ACE      -0.0199
     26 N           9.5852   -8.1684   -6.8601 N.am        1 ACE      -0.2738
     27 C           9.7972   -9.6295   -8.7287 C.2         1 ACE       0.2267
     28 CA          9.2346   -8.3472   -8.2575 C.3         1 ACE       0.1331
     29 N           9.4376  -10.7663   -8.1458 N.am        1 ACE      -0.2608
     30 CA          9.9280  -12.1078   -8.3474 C.3         1 ACE       0.1474
     31 C          11.0178  -12.4228   -7.4270 C.2         1 ACE       0.2017
     32 O          11.8106  -13.3260   -7.6585 O.2         1 ACE      -0.3945
     33 CB         10.2025  -12.4448   -9.8519 C.3         1 ACE       0.0774
     34 CG         10.1374  -13.8474  -10.2278 C.2         1 ACE       0.1781
     35 OD1         9.3666  -14.6254   -9.6882 O.2         1 ACE      -0.3970
     36 ND2        10.7863  -14.2894  -11.2834 N.am        1 ACE      -0.3007
     37 N          11.1597  -11.8108   -6.2673 N.am        1 ACE      -0.2988
     38 H1         10.1235   -3.9312   -4.2210 H           1 ACE       0.0467
     39 H2         11.5876   -3.3868   -5.0581 H           1 ACE       0.0467
     40 H3         11.6279   -3.7194   -3.3140 H           1 ACE       0.0467
     41 H4          9.7534   -6.0582   -4.6974 H           1 ACE       0.1885
     42 H5         11.9280   -8.0221   -4.5585 H           1 ACE       0.0840
     43 H6          9.9425   -9.6225   -4.4091 H           1 ACE       0.0584
     44 H7          8.9131   -8.2249   -4.1423 H           1 ACE       0.0584
     45 H8          9.4064  -10.6584   -2.3490 H           1 ACE       0.0703
     46 H9         10.9628   -6.7356   -2.2065 H           1 ACE       0.0703
     47 H10         9.6344  -10.8238    0.0274 H           1 ACE       0.0736
     48 H11        11.2233   -6.9325    0.1620 H           1 ACE       0.0736
     49 H12         7.2220   -5.8885   -9.7552 H           1 ACE       0.0265
     50 H13         7.1078   -4.9149   -8.2846 H           1 ACE       0.0265
     51 H14         9.3780   -5.5405   -7.6038 H           1 ACE       0.0265
     52 H15         9.4336   -4.9505   -9.2675 H           1 ACE       0.0265
     53 H16         5.8943   -7.1307   -8.1295 H           1 ACE       0.0265
     54 H17         7.0989   -6.8930   -6.8665 H           1 ACE       0.0265
     55 H18        10.8084   -6.9913   -9.0180 H           1 ACE       0.0277
     56 H19         9.4828   -7.2529  -10.1427 H           1 ACE       0.0277
     57 H20         7.3730   -8.6024   -9.3955 H           1 ACE       0.0277
     58 H21         7.2509   -9.1706   -7.7313 H           1 ACE       0.0277
     59 H22         8.8320   -8.1220   -6.2435 H           1 ACE       0.1839
     60 H23         8.7720  -10.6804   -7.4454 H           1 ACE       0.1891
     61 H24         9.0942  -12.7318   -8.0209 H           1 ACE       0.0828
     62 H25        11.1964  -12.0663  -10.1115 H           1 ACE       0.0551
     63 H26         9.4807  -11.9200  -10.4788 H           1 ACE       0.0551
     64 H27        10.6756  -15.2091  -11.5714 H           1 ACE       0.1814
     65 H28        11.3759  -13.6986  -11.7816 H           1 ACE       0.1814
     66 H29        11.8958  -12.0438   -5.6738 H           1 ACE       0.1815
     67 H30        10.5728  -11.0764   -6.0249 H           1 ACE       0.1815
@<TRIPOS>BOND
     1     1     2   2
     2     1     3   1
     3     4     1  am
     4     5     4   1
     5     6     5   1
     6     5     8   1
     7     6     7   2
     8    26     6  am
     9     8     9   1
    10     9    10  ar
    11     9    11  ar
    12    10    12  ar
    13    11    13  ar
    14    12    14  ar
    15    13    14  ar
    16    14    15   1
    17    15    16   1
    18    16    17  ar
    19    16    18  ar
    20    16    19  ar
    21    27    20   2
    22    22    21   1
    23    23    21   1
    24    24    22   1
    25    25    23   1
    26    28    24   1
    27    28    25   1
    28    28    26   1
    29    27    28   1
    30    27    29  am
    31    29    30   1
    32    30    31   1
    33    30    33   1
    34    31    32   2
    35    31    37  am
    36    33    34   1
    37    34    35   2
    38    34    36  am
    39     3    38   1
    40     3    39   1
    41     3    40   1
    42     4    41   1
    43     5    42   1
    44     8    43   1
    45     8    44   1
    46    10    45   1
    47    11    46   1
    48    12    47   1
    49    13    48   1
    50    21    49   1
    51    21    50   1
    52    22    51   1
    53    22    52   1
    54    23    53   1
    55    23    54   1
    56    24    55   1
    57    24    56   1
    58    25    57   1
    59    25    58   1
    60    26    59   1
    61    29    60   1
    62    30    61   1
    63    33    62   1
    64    33    63   1
    65    36    64   1
    66    36    65   1
    67    37    66   1
    68    37    67   1
@<TRIPOS>SUBSTRUCTURE
     1  ACE      1

