@<TRIPOS>MOLECULE
3s8o_ligand_095
    67    68
SMALL
GAST_HUCK
****
This file was generated by PARSER (from files_GN.cpp)

@<TRIPOS>ATOM
      1 C           7.2252   -8.4205   -1.2855 C.2         1 ACE       0.1753
      2 O           7.2941   -8.7566   -2.4637 O.2         1 ACE      -0.3972
      3 CH3         5.9559   -8.5253   -0.6018 C.3         1 ACE       0.0258
      4 N           8.3290   -8.1119   -0.6170 N.am        1 ACE      -0.2628
      5 CA          9.6550   -7.9923   -1.1830 C.3         1 ACE       0.1465
      6 C           9.9297   -8.9614   -2.2534 C.2         1 ACE       0.2045
      7 O           9.0511   -9.7729   -2.5485 O.2         1 ACE      -0.3944
      8 CB         10.7344   -8.0485   -0.0552 C.3         1 ACE       0.0400
      9 CG         10.4173   -7.2314    1.1515 C.ar        1 ACE      -0.0004
     10 CD1        10.4950   -5.8192    1.0963 C.ar        1 ACE      -0.0239
     11 CD2        10.0119   -7.8341    2.3671 C.ar        1 ACE      -0.0239
     12 CE1        10.1393   -5.0329    2.2065 C.ar        1 ACE       0.0115
     13 CE2         9.6842   -7.0474    3.4888 C.ar        1 ACE       0.0115
     14 CZ          9.7457   -5.6398    3.4179 C.ar        1 ACE       0.1728
     15 OH          9.3145   -4.8915    4.4830 O.3         1 ACE      -0.2040
     16 P          10.4478   -4.3803    5.4229 P.3         1 ACE       0.1348
     17 O1P        11.3450   -5.4278    5.8445 O.co2       1 ACE      -0.6653
     18 O2P        11.2019   -3.3070    4.8249 O.co2       1 ACE      -0.6653
     19 O3P         9.8292   -3.8438    6.6080 O.co2       1 ACE      -0.6653
     20 O          13.2146   -8.3347   -5.2945 O.2         1 ACE      -0.3419
     21 CD         10.7862  -11.3698   -6.4800 C.3         1 ACE      -0.0532
     22 CG         10.8215   -9.8378   -6.6967 C.3         1 ACE      -0.0516
     23 CE         11.7549  -11.8085   -5.3535 C.3         1 ACE      -0.0516
     24 CB         10.5497   -9.0731   -5.3727 C.3         1 ACE      -0.0199
     25 CH         11.4361  -11.0681   -4.0287 C.3         1 ACE      -0.0199
     26 N          11.0477   -8.8254   -2.9648 N.am        1 ACE      -0.2738
     27 C          12.8941   -9.0548   -4.3555 C.2         1 ACE       0.2267
     28 CA         11.4893   -9.4981   -4.1744 C.3         1 ACE       0.1331
     29 N          13.8213   -9.3849   -3.4593 N.am        1 ACE      -0.2608
     30 CA         15.2198   -9.0232   -3.4628 C.3         1 ACE       0.1474
     31 C          15.9492  -10.0412   -2.7055 C.2         1 ACE       0.2017
     32 O          15.4458  -10.5936   -1.7375 O.2         1 ACE      -0.3945
     33 CB         15.4072   -7.5911   -2.8761 C.3         1 ACE       0.0774
     34 CG         16.6740   -7.3559   -2.2066 C.2         1 ACE       0.1781
     35 OD1        16.7177   -7.0989   -1.0085 O.2         1 ACE      -0.3970
     36 ND2        17.8255   -7.4353   -2.8553 N.am        1 ACE      -0.3007
     37 N          17.1683  -10.3992   -3.0319 N.am        1 ACE      -0.2988
     38 H1          6.0052   -8.0989    0.4047 H           1 ACE       0.0467
     39 H2          5.6676   -9.5838   -0.5247 H           1 ACE       0.0467
     40 H3          5.1875   -7.9909   -1.1746 H           1 ACE       0.0467
     41 H4          8.2430   -7.9602    0.3366 H           1 ACE       0.1885
     42 H5          9.7175   -6.9956   -1.6352 H           1 ACE       0.0840
     43 H6         11.6876   -7.6731   -0.4446 H           1 ACE       0.0584
     44 H7         10.8904   -9.0939    0.2211 H           1 ACE       0.0584
     45 H8         10.7958   -5.3489    0.2398 H           1 ACE       0.0703
     46 H9          9.9457   -8.8525    2.4432 H           1 ACE       0.0703
     47 H10        10.1653   -4.0128    2.1310 H           1 ACE       0.0736
     48 H11         9.3826   -7.5028    4.3538 H           1 ACE       0.0736
     49 H12        11.0479  -11.8787   -7.4130 H           1 ACE       0.0265
     50 H13         9.7701  -11.6774   -6.2202 H           1 ACE       0.0265
     51 H14        10.0629   -9.5647   -7.4356 H           1 ACE       0.0265
     52 H15        11.7895   -9.5504   -7.1054 H           1 ACE       0.0265
     53 H16        12.7841  -11.6022   -5.6465 H           1 ACE       0.0265
     54 H17        11.6624  -12.8891   -5.2024 H           1 ACE       0.0265
     55 H18         9.5060   -9.2527   -5.1145 H           1 ACE       0.0277
     56 H19        10.6446   -7.9995   -5.5559 H           1 ACE       0.0277
     57 H20        12.1257  -11.4166   -3.2538 H           1 ACE       0.0277
     58 H21        10.4426  -11.3865   -3.7160 H           1 ACE       0.0277
     59 H22        11.6554   -8.1447   -2.6333 H           1 ACE       0.1839
     60 H23        13.5164   -9.9221   -2.7126 H           1 ACE       0.1891
     61 H24        15.5888   -9.0222   -4.4920 H           1 ACE       0.0828
     62 H25        14.5854   -7.3823   -2.1849 H           1 ACE       0.0551
     63 H26        15.3288   -6.8610   -3.6851 H           1 ACE       0.0551
     64 H27        18.6588   -7.2556   -2.3933 H           1 ACE       0.1814
     65 H28        17.8322   -7.6185   -3.8102 H           1 ACE       0.1814
     66 H29        17.6390  -11.0790   -2.5117 H           1 ACE       0.1815
     67 H30        17.6315   -9.9775   -3.7788 H           1 ACE       0.1815
@<TRIPOS>BOND
     1     1     2   2
     2     1     3   1
     3     4     1  am
     4     5     4   1
     5     6     5   1
     6     5     8   1
     7     6     7   2
     8    26     6  am
     9     8     9   1
    10     9    10  ar
    11     9    11  ar
    12    10    12  ar
    13    11    13  ar
    14    12    14  ar
    15    13    14  ar
    16    14    15   1
    17    15    16   1
    18    16    17  ar
    19    16    18  ar
    20    16    19  ar
    21    27    20   2
    22    22    21   1
    23    23    21   1
    24    24    22   1
    25    25    23   1
    26    28    24   1
    27    28    25   1
    28    28    26   1
    29    27    28   1
    30    27    29  am
    31    29    30   1
    32    30    31   1
    33    30    33   1
    34    31    32   2
    35    31    37  am
    36    33    34   1
    37    34    35   2
    38    34    36  am
    39     3    38   1
    40     3    39   1
    41     3    40   1
    42     4    41   1
    43     5    42   1
    44     8    43   1
    45     8    44   1
    46    10    45   1
    47    11    46   1
    48    12    47   1
    49    13    48   1
    50    21    49   1
    51    21    50   1
    52    22    51   1
    53    22    52   1
    54    23    53   1
    55    23    54   1
    56    24    55   1
    57    24    56   1
    58    25    57   1
    59    25    58   1
    60    26    59   1
    61    29    60   1
    62    30    61   1
    63    33    62   1
    64    33    63   1
    65    36    64   1
    66    36    65   1
    67    37    66   1
    68    37    67   1
@<TRIPOS>SUBSTRUCTURE
     1  ACE      1

