@<TRIPOS>MOLECULE
3s8o_ligand_049
    67    68
SMALL
GAST_HUCK
****
This file was generated by PARSER (from files_GN.cpp)

@<TRIPOS>ATOM
      1 C           5.0012   -8.2240   -0.6043 C.2         1 ACE       0.1753
      2 O           4.4077   -7.1509   -0.5826 O.2         1 ACE      -0.3972
      3 CH3         4.4436   -9.2916   -1.3987 C.3         1 ACE       0.0258
      4 N           6.0548   -8.4541    0.1735 N.am        1 ACE      -0.2628
      5 CA          6.6413   -7.5673    1.1411 C.3         1 ACE       0.1465
      6 C           5.6299   -6.8268    1.9114 C.2         1 ACE       0.2045
      7 O           5.6731   -5.6006    1.9831 O.2         1 ACE      -0.3944
      8 CB          7.7666   -6.7125    0.4627 C.3         1 ACE       0.0400
      9 CG          8.8157   -6.2097    1.3978 C.ar        1 ACE      -0.0004
     10 CD1         8.6416   -4.9867    2.0862 C.ar        1 ACE      -0.0239
     11 CD2        10.0012   -6.9531    1.6216 C.ar        1 ACE      -0.0239
     12 CE1         9.6089   -4.5343    3.0006 C.ar        1 ACE       0.0115
     13 CE2        10.9841   -6.4817    2.5105 C.ar        1 ACE       0.0115
     14 CZ         10.8058   -5.2599    3.1945 C.ar        1 ACE       0.1728
     15 OH         11.7284   -4.8229    4.1079 O.3         1 ACE      -0.2040
     16 P          12.7236   -3.7610    3.5407 P.3         1 ACE       0.1348
     17 O1P        13.7655   -4.3672    2.7509 O.co2       1 ACE      -0.6653
     18 O2P        12.0767   -2.7249    2.7697 O.co2       1 ACE      -0.6653
     19 O3P        13.3562   -3.1111    4.6609 O.co2       1 ACE      -0.6653
     20 O           3.5340   -7.6788    5.5971 O.2         1 ACE      -0.3419
     21 CD          0.5207   -6.4006    3.2746 C.3         1 ACE      -0.0532
     22 CG          1.0414   -7.7809    3.7433 C.3         1 ACE      -0.0516
     23 CE          1.5889   -5.2951    3.4821 C.3         1 ACE      -0.0516
     24 CB          2.4192   -8.1278    3.1090 C.3         1 ACE      -0.0199
     25 CH          2.9346   -5.6758    2.8002 C.3         1 ACE      -0.0199
     26 N           4.6607   -7.4973    2.5273 N.am        1 ACE      -0.2738
     27 C           4.0155   -6.9541    4.7231 C.2         1 ACE       0.2267
     28 CA          3.5395   -7.0344    3.3282 C.3         1 ACE       0.1331
     29 N           5.0524   -6.1729    5.0237 N.am        1 ACE      -0.2608
     30 CA          5.8382   -6.1188    6.2267 C.3         1 ACE       0.1474
     31 C           5.1330   -6.5372    7.4438 C.2         1 ACE       0.2017
     32 O           5.0213   -7.7290    7.6886 O.2         1 ACE      -0.3945
     33 CB          6.5287   -4.7145    6.3093 C.3         1 ACE       0.0774
     34 CG          5.6922   -3.5283    6.1806 C.2         1 ACE       0.1781
     35 OD1         4.4719   -3.5695    6.2859 O.2         1 ACE      -0.3970
     36 ND2         6.2256   -2.3503    5.9281 N.am        1 ACE      -0.3007
     37 N           4.6435   -5.7159    8.3467 N.am        1 ACE      -0.2988
     38 H1          5.1303  -10.1400   -1.4927 H           1 ACE       0.0467
     39 H2          4.2117   -8.9257   -2.3999 H           1 ACE       0.0467
     40 H3          3.5195   -9.6432   -0.9344 H           1 ACE       0.0467
     41 H4          6.4430   -9.3395    0.1286 H           1 ACE       0.1885
     42 H5          7.1290   -8.2277    1.8618 H           1 ACE       0.0840
     43 H6          7.2946   -5.8735   -0.0593 H           1 ACE       0.0584
     44 H7          8.2688   -7.3131   -0.3046 H           1 ACE       0.0584
     45 H8          7.7950   -4.4288    1.9483 H           1 ACE       0.0703
     46 H9         10.1524   -7.8406    1.1316 H           1 ACE       0.0703
     47 H10         9.4525   -3.6651    3.5115 H           1 ACE       0.0736
     48 H11        11.8308   -7.0360    2.6666 H           1 ACE       0.0736
     49 H12        -0.3888   -6.1426    3.8302 H           1 ACE       0.0265
     50 H13         0.2589   -6.4594    2.2125 H           1 ACE       0.0265
     51 H14         0.3115   -8.5462    3.4592 H           1 ACE       0.0265
     52 H15         1.1195   -7.7815    4.8338 H           1 ACE       0.0265
     53 H16         1.7412   -5.1337    4.5542 H           1 ACE       0.0265
     54 H17         1.2157   -4.3602    3.0538 H           1 ACE       0.0265
     55 H18         2.2518   -8.2594    2.0348 H           1 ACE       0.0277
     56 H19         2.7528   -9.0931    3.4997 H           1 ACE       0.0277
     57 H20         3.6251   -4.8400    2.9495 H           1 ACE       0.0277
     58 H21         2.7624   -5.7515    1.7192 H           1 ACE       0.0277
     59 H22         4.7021   -8.4624    2.4271 H           1 ACE       0.1839
     60 H23         5.3822   -5.6145    4.2968 H           1 ACE       0.1891
     61 H24         6.6569   -6.8346    6.0876 H           1 ACE       0.0828
     62 H25         7.2738   -4.6625    5.5078 H           1 ACE       0.0551
     63 H26         7.0733   -4.6470    7.2559 H           1 ACE       0.0551
     64 H27         5.6559   -1.5686    5.8349 H           1 ACE       0.1814
     65 H28         7.1880   -2.2582    5.8362 H           1 ACE       0.1814
     66 H29         4.2275   -6.0789    9.1481 H           1 ACE       0.1815
     67 H30         4.6885   -4.7550    8.2340 H           1 ACE       0.1815
@<TRIPOS>BOND
     1     1     2   2
     2     1     3   1
     3     4     1  am
     4     5     4   1
     5     6     5   1
     6     5     8   1
     7     6     7   2
     8    26     6  am
     9     8     9   1
    10     9    10  ar
    11     9    11  ar
    12    10    12  ar
    13    11    13  ar
    14    12    14  ar
    15    13    14  ar
    16    14    15   1
    17    15    16   1
    18    16    17  ar
    19    16    18  ar
    20    16    19  ar
    21    27    20   2
    22    22    21   1
    23    23    21   1
    24    24    22   1
    25    25    23   1
    26    28    24   1
    27    28    25   1
    28    28    26   1
    29    27    28   1
    30    27    29  am
    31    29    30   1
    32    30    31   1
    33    30    33   1
    34    31    32   2
    35    31    37  am
    36    33    34   1
    37    34    35   2
    38    34    36  am
    39     3    38   1
    40     3    39   1
    41     3    40   1
    42     4    41   1
    43     5    42   1
    44     8    43   1
    45     8    44   1
    46    10    45   1
    47    11    46   1
    48    12    47   1
    49    13    48   1
    50    21    49   1
    51    21    50   1
    52    22    51   1
    53    22    52   1
    54    23    53   1
    55    23    54   1
    56    24    55   1
    57    24    56   1
    58    25    57   1
    59    25    58   1
    60    26    59   1
    61    29    60   1
    62    30    61   1
    63    33    62   1
    64    33    63   1
    65    36    64   1
    66    36    65   1
    67    37    66   1
    68    37    67   1
@<TRIPOS>SUBSTRUCTURE
     1  ACE      1

