@<TRIPOS>MOLECULE
3s8o_ligand_074
    67    68
SMALL
GAST_HUCK
****
This file was generated by PARSER (from files_GN.cpp)

@<TRIPOS>ATOM
      1 C           5.1490   -7.1837    7.1937 C.2         1 ACE       0.1753
      2 O           5.5503   -8.2075    7.7290 O.2         1 ACE      -0.3972
      3 CH3         4.8945   -6.0292    8.0229 C.3         1 ACE       0.0258
      4 N           4.9817   -7.0953    5.8830 N.am        1 ACE      -0.2628
      5 CA          5.2488   -8.1059    4.8938 C.3         1 ACE       0.1465
      6 C           6.5753   -7.8650    4.3220 C.2         1 ACE       0.2045
      7 O           7.3256   -8.8260    4.2273 O.2         1 ACE      -0.3944
      8 CB          4.0570   -8.1761    3.8640 C.3         1 ACE       0.0400
      9 CG          4.3654   -7.8990    2.4320 C.ar        1 ACE      -0.0004
     10 CD1         3.9980   -6.6785    1.8240 C.ar        1 ACE      -0.0239
     11 CD2         5.0415   -8.8688    1.6514 C.ar        1 ACE      -0.0239
     12 CE1         4.3385   -6.4135    0.4821 C.ar        1 ACE       0.0115
     13 CE2         5.3777   -8.6061    0.3115 C.ar        1 ACE       0.0115
     14 CZ          5.0641   -7.3602   -0.2744 C.ar        1 ACE       0.1728
     15 OH          5.3692   -7.1156   -1.5875 O.3         1 ACE      -0.2040
     16 P           6.7868   -6.5029   -1.8061 P.3         1 ACE       0.1348
     17 O1P         7.8410   -7.3337   -1.2885 O.co2       1 ACE      -0.6653
     18 O2P         6.9958   -6.3931   -3.2264 O.co2       1 ACE      -0.6653
     19 O3P         6.9028   -5.1735   -1.2625 O.co2       1 ACE      -0.6653
     20 O           9.3694   -7.4335    1.7911 O.2         1 ACE      -0.3419
     21 CD          7.2065   -3.1502    3.0047 C.3         1 ACE      -0.0532
     22 CG          7.6872   -3.7437    4.3523 C.3         1 ACE      -0.0516
     23 CE          6.5841   -4.2327    2.0917 C.3         1 ACE      -0.0516
     24 CB          8.6397   -4.9545    4.1506 C.3         1 ACE      -0.0199
     25 CH          7.5602   -5.4238    1.8974 C.3         1 ACE      -0.0199
     26 N           6.8985   -6.6487    3.8760 N.am        1 ACE      -0.2738
     27 C           9.1394   -7.0842    2.9424 C.2         1 ACE       0.2267
     28 CA          8.0752   -6.0950    3.2266 C.3         1 ACE       0.1331
     29 N           9.7983   -7.6805    3.9372 N.am        1 ACE      -0.2608
     30 CA         10.6474   -8.8422    3.8186 C.3         1 ACE       0.1474
     31 C          10.5067   -9.7239    4.9825 C.2         1 ACE       0.2017
     32 O           9.8748   -9.3999    5.9773 O.2         1 ACE      -0.3945
     33 CB         12.1098   -8.4234    3.4451 C.3         1 ACE       0.0774
     34 CG         13.0641   -8.4551    4.5340 C.2         1 ACE       0.1781
     35 OD1        13.2113   -7.4901    5.2660 O.2         1 ACE      -0.3970
     36 ND2        13.6171   -9.5977    4.8812 N.am        1 ACE      -0.3007
     37 N          11.0526  -10.9226    5.0032 N.am        1 ACE      -0.2988
     38 H1          4.5841   -5.1645    7.4287 H           1 ACE       0.0467
     39 H2          5.8021   -5.7598    8.5671 H           1 ACE       0.0467
     40 H3          4.1031   -6.2636    8.7375 H           1 ACE       0.0467
     41 H4          4.6907   -6.2343    5.5425 H           1 ACE       0.1885
     42 H5          5.2672   -9.0825    5.3965 H           1 ACE       0.0840
     43 H6          3.2574   -7.5024    4.1897 H           1 ACE       0.0584
     44 H7          3.6100   -9.1733    3.9092 H           1 ACE       0.0584
     45 H8          3.4881   -5.9671    2.3522 H           1 ACE       0.0703
     46 H9          5.2894   -9.7750    2.0598 H           1 ACE       0.0703
     47 H10         4.0687   -5.5238    0.0586 H           1 ACE       0.0736
     48 H11         5.8596   -9.3185   -0.2364 H           1 ACE       0.0736
     49 H12         8.0554   -2.6926    2.4919 H           1 ACE       0.0265
     50 H13         6.4669   -2.3686    3.1939 H           1 ACE       0.0265
     51 H14         6.8218   -4.0496    4.9482 H           1 ACE       0.0265
     52 H15         8.2125   -2.9670    4.9126 H           1 ACE       0.0265
     53 H16         6.3529   -3.7925    1.1176 H           1 ACE       0.0265
     54 H17         5.6439   -4.5834    2.5260 H           1 ACE       0.0265
     55 H18         8.8754   -5.3589    5.1386 H           1 ACE       0.0277
     56 H19         9.5749   -4.5759    3.7269 H           1 ACE       0.0277
     57 H20         8.4154   -5.0521    1.3237 H           1 ACE       0.0277
     58 H21         7.0637   -6.1792    1.2848 H           1 ACE       0.0277
     59 H22         6.1966   -5.9947    4.0203 H           1 ACE       0.1839
     60 H23         9.5721   -7.4004    4.8386 H           1 ACE       0.1891
     61 H24        10.2661   -9.4430    2.9886 H           1 ACE       0.0828
     62 H25        12.1130   -7.4157    3.0167 H           1 ACE       0.0551
     63 H26        12.4717   -9.0792    2.6473 H           1 ACE       0.0551
     64 H27        14.1021   -9.6596    5.7167 H           1 ACE       0.1814
     65 H28        13.4309  -10.4051    4.3715 H           1 ACE       0.1814
     66 H29        10.8947  -11.5056    5.7635 H           1 ACE       0.1815
     67 H30        11.6147  -11.2311    4.2755 H           1 ACE       0.1815
@<TRIPOS>BOND
     1     1     2   2
     2     1     3   1
     3     4     1  am
     4     5     4   1
     5     6     5   1
     6     5     8   1
     7     6     7   2
     8    26     6  am
     9     8     9   1
    10     9    10  ar
    11     9    11  ar
    12    10    12  ar
    13    11    13  ar
    14    12    14  ar
    15    13    14  ar
    16    14    15   1
    17    15    16   1
    18    16    17  ar
    19    16    18  ar
    20    16    19  ar
    21    27    20   2
    22    22    21   1
    23    23    21   1
    24    24    22   1
    25    25    23   1
    26    28    24   1
    27    28    25   1
    28    28    26   1
    29    27    28   1
    30    27    29  am
    31    29    30   1
    32    30    31   1
    33    30    33   1
    34    31    32   2
    35    31    37  am
    36    33    34   1
    37    34    35   2
    38    34    36  am
    39     3    38   1
    40     3    39   1
    41     3    40   1
    42     4    41   1
    43     5    42   1
    44     8    43   1
    45     8    44   1
    46    10    45   1
    47    11    46   1
    48    12    47   1
    49    13    48   1
    50    21    49   1
    51    21    50   1
    52    22    51   1
    53    22    52   1
    54    23    53   1
    55    23    54   1
    56    24    55   1
    57    24    56   1
    58    25    57   1
    59    25    58   1
    60    26    59   1
    61    29    60   1
    62    30    61   1
    63    33    62   1
    64    33    63   1
    65    36    64   1
    66    36    65   1
    67    37    66   1
    68    37    67   1
@<TRIPOS>SUBSTRUCTURE
     1  ACE      1

