@<TRIPOS>MOLECULE
3s8o_ligand_077
    67    68
SMALL
GAST_HUCK
****
This file was generated by PARSER (from files_GN.cpp)

@<TRIPOS>ATOM
      1 C           7.6382   -8.1976   -1.5005 C.2         1 ACE       0.1753
      2 O           7.5625   -8.6891   -2.6206 O.2         1 ACE      -0.3972
      3 CH3         6.4684   -8.3169   -0.6606 C.3         1 ACE       0.0258
      4 N           8.7245   -7.5841   -1.0376 N.am        1 ACE      -0.2628
      5 CA          9.9769   -7.2633   -1.6786 C.3         1 ACE       0.1465
      6 C          10.1946   -7.7552   -3.0340 C.2         1 ACE       0.2045
      7 O           9.9317   -7.0178   -3.9906 O.2         1 ACE      -0.3944
      8 CB         11.1566   -7.7153   -0.7520 C.3         1 ACE       0.0400
      9 CG         11.3367   -6.8936    0.4759 C.ar        1 ACE      -0.0004
     10 CD1        11.8195   -5.5691    0.3601 C.ar        1 ACE      -0.0239
     11 CD2        11.0956   -7.4114    1.7710 C.ar        1 ACE      -0.0239
     12 CE1        12.0570   -4.7850    1.5038 C.ar        1 ACE       0.0115
     13 CE2        11.3395   -6.6319    2.9168 C.ar        1 ACE       0.0115
     14 CZ         11.8456   -5.3220    2.7911 C.ar        1 ACE       0.1728
     15 OH         12.0736   -4.5370    3.8987 O.3         1 ACE      -0.2040
     16 P          13.5727   -4.3996    4.2920 P.3         1 ACE       0.1348
     17 O1P        13.7495   -3.0295    4.7209 O.co2       1 ACE      -0.6653
     18 O2P        13.9368   -5.2458    5.4083 O.co2       1 ACE      -0.6653
     19 O3P        14.4946   -4.6039    3.1989 O.co2       1 ACE      -0.6653
     20 O          12.8584   -8.4073   -5.5799 O.2         1 ACE      -0.3419
     21 CD         10.6286  -11.6273   -6.6906 C.3         1 ACE      -0.0532
     22 CG         10.5482  -10.0999   -6.9580 C.3         1 ACE      -0.0516
     23 CE         11.5256  -11.9607   -5.4770 C.3         1 ACE      -0.0516
     24 CB         10.2100   -9.2802   -5.6738 C.3         1 ACE      -0.0199
     25 CH         11.1170  -11.1393   -4.2196 C.3         1 ACE      -0.0199
     26 N          10.6640   -8.9799   -3.2312 N.am        1 ACE      -0.2738
     27 C          12.5567   -9.1185   -4.6285 C.2         1 ACE       0.2267
     28 CA         11.1621   -9.5786   -4.4490 C.3         1 ACE       0.1331
     29 N          13.4845   -9.4571   -3.7312 N.am        1 ACE      -0.2608
     30 CA         14.8918   -9.1731   -3.7968 C.3         1 ACE       0.1474
     31 C          15.4739   -9.6395   -5.0441 C.2         1 ACE       0.2017
     32 O          15.1997  -10.7501   -5.4926 O.2         1 ACE      -0.3945
     33 CB         15.6557   -9.7707   -2.5760 C.3         1 ACE       0.0774
     34 CG         15.3005  -11.1300   -2.1831 C.2         1 ACE       0.1781
     35 OD1        14.1250  -11.4327   -2.0153 O.2         1 ACE      -0.3970
     36 ND2        16.2059  -12.0628   -1.9906 N.am        1 ACE      -0.3007
     37 N          16.2059   -8.8529   -5.8002 N.am        1 ACE      -0.2988
     38 H1          6.6162   -7.8448    0.3201 H           1 ACE       0.0467
     39 H2          6.2292   -9.3751   -0.5040 H           1 ACE       0.0467
     40 H3          5.6175   -7.8359   -1.1560 H           1 ACE       0.0467
     41 H4          8.6406   -7.2330   -0.1387 H           1 ACE       0.1885
     42 H5          9.9915   -6.1699   -1.7257 H           1 ACE       0.0840
     43 H6         12.1101   -7.6741   -1.2923 H           1 ACE       0.0584
     44 H7         11.0010   -8.7642   -0.4866 H           1 ACE       0.0584
     45 H8         12.0202   -5.1678   -0.5601 H           1 ACE       0.0703
     46 H9         10.7471   -8.3642    1.8892 H           1 ACE       0.0703
     47 H10        12.4124   -3.8241    1.3967 H           1 ACE       0.0736
     48 H11        11.1615   -7.0173    3.8476 H           1 ACE       0.0736
     49 H12        11.0306  -12.1205   -7.5843 H           1 ACE       0.0265
     50 H13         9.6169  -12.0146   -6.5146 H           1 ACE       0.0265
     51 H14         9.7761   -9.9089   -7.7115 H           1 ACE       0.0265
     52 H15        11.5030   -9.7540   -7.3724 H           1 ACE       0.0265
     53 H16        12.5729  -11.7483   -5.7215 H           1 ACE       0.0265
     54 H17        11.4363  -13.0312   -5.2544 H           1 ACE       0.0265
     55 H18         9.1763   -9.5033   -5.3872 H           1 ACE       0.0277
     56 H19        10.2488   -8.2214   -5.9432 H           1 ACE       0.0277
     57 H20        11.7703  -11.4363   -3.3892 H           1 ACE       0.0277
     58 H21        10.0983  -11.4366   -3.9380 H           1 ACE       0.0277
     59 H22        10.7958   -9.5105   -2.4276 H           1 ACE       0.1839
     60 H23        13.1793   -9.9561   -2.9534 H           1 ACE       0.1891
     61 H24        15.0095   -8.0829   -3.7254 H           1 ACE       0.0828
     62 H25        15.4697   -9.1336   -1.7129 H           1 ACE       0.0551
     63 H26        16.7356   -9.7143   -2.7706 H           1 ACE       0.0551
     64 H27        15.9196  -12.9448   -1.7054 H           1 ACE       0.1814
     65 H28        17.1570  -11.8810   -2.0869 H           1 ACE       0.1814
     66 H29        16.5435   -9.1589   -6.6550 H           1 ACE       0.1815
     67 H30        16.4219   -7.9585   -5.4958 H           1 ACE       0.1815
@<TRIPOS>BOND
     1     1     2   2
     2     1     3   1
     3     4     1  am
     4     5     4   1
     5     6     5   1
     6     5     8   1
     7     6     7   2
     8    26     6  am
     9     8     9   1
    10     9    10  ar
    11     9    11  ar
    12    10    12  ar
    13    11    13  ar
    14    12    14  ar
    15    13    14  ar
    16    14    15   1
    17    15    16   1
    18    16    17  ar
    19    16    18  ar
    20    16    19  ar
    21    27    20   2
    22    22    21   1
    23    23    21   1
    24    24    22   1
    25    25    23   1
    26    28    24   1
    27    28    25   1
    28    28    26   1
    29    27    28   1
    30    27    29  am
    31    29    30   1
    32    30    31   1
    33    30    33   1
    34    31    32   2
    35    31    37  am
    36    33    34   1
    37    34    35   2
    38    34    36  am
    39     3    38   1
    40     3    39   1
    41     3    40   1
    42     4    41   1
    43     5    42   1
    44     8    43   1
    45     8    44   1
    46    10    45   1
    47    11    46   1
    48    12    47   1
    49    13    48   1
    50    21    49   1
    51    21    50   1
    52    22    51   1
    53    22    52   1
    54    23    53   1
    55    23    54   1
    56    24    55   1
    57    24    56   1
    58    25    57   1
    59    25    58   1
    60    26    59   1
    61    29    60   1
    62    30    61   1
    63    33    62   1
    64    33    63   1
    65    36    64   1
    66    36    65   1
    67    37    66   1
    68    37    67   1
@<TRIPOS>SUBSTRUCTURE
     1  ACE      1

