@<TRIPOS>MOLECULE
3s8o_ligand_082
    67    68
SMALL
GAST_HUCK
****
This file was generated by PARSER (from files_GN.cpp)

@<TRIPOS>ATOM
      1 C          11.2971   -7.5323    1.9444 C.2         1 ACE       0.1753
      2 O          11.1572   -8.7244    2.1849 O.2         1 ACE      -0.3972
      3 CH3        11.7893   -6.6756    2.9993 C.3         1 ACE       0.0258
      4 N          11.0566   -7.0284    0.7425 N.am        1 ACE      -0.2628
      5 CA         10.6649   -7.7235   -0.4591 C.3         1 ACE       0.1465
      6 C          11.7534   -7.6800   -1.4355 C.2         1 ACE       0.2045
      7 O          12.4871   -6.6995   -1.4531 O.2         1 ACE      -0.3944
      8 CB          9.3712   -7.0724   -1.0574 C.3         1 ACE       0.0400
      9 CG          8.1024   -7.6759   -0.5616 C.ar        1 ACE      -0.0004
     10 CD1         7.5951   -7.3603    0.7195 C.ar        1 ACE      -0.0239
     11 CD2         7.3718   -8.5803   -1.3711 C.ar        1 ACE      -0.0239
     12 CE1         6.3764   -7.9107    1.1651 C.ar        1 ACE       0.0115
     13 CE2         6.1564   -9.1299   -0.9278 C.ar        1 ACE       0.0115
     14 CZ          5.6295   -8.7669    0.3295 C.ar        1 ACE       0.1728
     15 OH          4.4666   -9.3436    0.7562 O.3         1 ACE      -0.2040
     16 P           3.2218   -8.4150    0.6948 P.3         1 ACE       0.1348
     17 O1P         2.9449   -7.9342   -0.6342 O.co2       1 ACE      -0.6653
     18 O2P         2.0906   -9.2042    1.1069 O.co2       1 ACE      -0.6653
     19 O3P         3.3104   -7.3048    1.6066 O.co2       1 ACE      -0.6653
     20 O          13.2213   -6.7289   -4.4282 O.2         1 ACE      -0.3419
     21 CD         11.6249  -11.4843   -4.6542 C.3         1 ACE      -0.0532
     22 CG         10.7942  -10.1885   -4.8042 C.3         1 ACE      -0.0516
     23 CE         12.5105  -11.4367   -3.3865 C.3         1 ACE      -0.0516
     24 CB         11.7078   -8.9368   -4.7936 C.3         1 ACE      -0.0199
     25 CH         13.4143  -10.1708   -3.3648 C.3         1 ACE      -0.0199
     26 N          11.8168   -8.6256   -2.3718 N.am        1 ACE      -0.2738
     27 C          13.6146   -7.6811   -3.7685 C.2         1 ACE       0.2267
     28 CA         12.6621   -8.8003   -3.5434 C.3         1 ACE       0.1331
     29 N          14.8081   -7.6301   -3.1702 N.am        1 ACE      -0.2608
     30 CA         15.8808   -6.6585   -3.1886 C.3         1 ACE       0.1474
     31 C          16.5928   -6.7302   -1.9077 C.2         1 ACE       0.2017
     32 O          16.8476   -5.7442   -1.2327 O.2         1 ACE      -0.3945
     33 CB         15.5667   -5.2070   -3.6862 C.3         1 ACE       0.0774
     34 CG         14.5450   -4.4464   -2.9783 C.2         1 ACE       0.1781
     35 OD1        14.2544   -4.6529   -1.8073 O.2         1 ACE      -0.3970
     36 ND2        13.8882   -3.4774   -3.5772 N.am        1 ACE      -0.3007
     37 N          17.0827   -7.8660   -1.4506 N.am        1 ACE      -0.2988
     38 H1         11.8949   -5.6387    2.6703 H           1 ACE       0.0467
     39 H2         12.7682   -7.0255    3.3343 H           1 ACE       0.0467
     40 H3         11.0989   -6.6980    3.8438 H           1 ACE       0.0467
     41 H4         11.2226   -6.0778    0.6416 H           1 ACE       0.1885
     42 H5         10.4629   -8.7781   -0.2354 H           1 ACE       0.0840
     43 H6          9.3845   -7.1512   -2.1501 H           1 ACE       0.0584
     44 H7          9.3565   -5.9978   -0.8482 H           1 ACE       0.0584
     45 H8          8.1042   -6.7213    1.3341 H           1 ACE       0.0703
     46 H9          7.7262   -8.8519   -2.2913 H           1 ACE       0.0703
     47 H10         6.0303   -7.6814    2.0989 H           1 ACE       0.0736
     48 H11         5.6549   -9.7967   -1.5211 H           1 ACE       0.0736
     49 H12        12.2615  -11.6139   -5.5355 H           1 ACE       0.0265
     50 H13        10.9525  -12.3427   -4.5942 H           1 ACE       0.0265
     51 H14        10.0644  -10.1255   -3.9932 H           1 ACE       0.0265
     52 H15        10.2416  -10.2252   -5.7458 H           1 ACE       0.0265
     53 H16        13.1492  -12.3243   -3.3608 H           1 ACE       0.0265
     54 H17        11.8780  -11.4524   -2.4949 H           1 ACE       0.0265
     55 H18        11.0597   -8.0609   -4.8580 H           1 ACE       0.0277
     56 H19        12.3104   -8.9621   -5.7074 H           1 ACE       0.0277
     57 H20        14.1580  -10.2877   -4.1629 H           1 ACE       0.0277
     58 H21        13.9532  -10.1779   -2.4100 H           1 ACE       0.0277
     59 H22        11.1597   -9.3317   -2.2556 H           1 ACE       0.1839
     60 H23        15.0264   -8.4282   -2.6717 H           1 ACE       0.1891
     61 H24        16.5890   -7.0600   -3.9150 H           1 ACE       0.0828
     62 H25        15.2900   -5.2756   -4.7387 H           1 ACE       0.0551
     63 H26        16.4886   -4.6223   -3.6585 H           1 ACE       0.0551
     64 H27        13.1929   -2.9937   -3.0966 H           1 ACE       0.1814
     65 H28        14.0622   -3.2655   -4.5097 H           1 ACE       0.1814
     66 H29        17.5663   -7.8808   -0.6085 H           1 ACE       0.1815
     67 H30        16.9585   -8.6925   -1.9429 H           1 ACE       0.1815
@<TRIPOS>BOND
     1     1     2   2
     2     1     3   1
     3     4     1  am
     4     5     4   1
     5     6     5   1
     6     5     8   1
     7     6     7   2
     8    26     6  am
     9     8     9   1
    10     9    10  ar
    11     9    11  ar
    12    10    12  ar
    13    11    13  ar
    14    12    14  ar
    15    13    14  ar
    16    14    15   1
    17    15    16   1
    18    16    17  ar
    19    16    18  ar
    20    16    19  ar
    21    27    20   2
    22    22    21   1
    23    23    21   1
    24    24    22   1
    25    25    23   1
    26    28    24   1
    27    28    25   1
    28    28    26   1
    29    27    28   1
    30    27    29  am
    31    29    30   1
    32    30    31   1
    33    30    33   1
    34    31    32   2
    35    31    37  am
    36    33    34   1
    37    34    35   2
    38    34    36  am
    39     3    38   1
    40     3    39   1
    41     3    40   1
    42     4    41   1
    43     5    42   1
    44     8    43   1
    45     8    44   1
    46    10    45   1
    47    11    46   1
    48    12    47   1
    49    13    48   1
    50    21    49   1
    51    21    50   1
    52    22    51   1
    53    22    52   1
    54    23    53   1
    55    23    54   1
    56    24    55   1
    57    24    56   1
    58    25    57   1
    59    25    58   1
    60    26    59   1
    61    29    60   1
    62    30    61   1
    63    33    62   1
    64    33    63   1
    65    36    64   1
    66    36    65   1
    67    37    66   1
    68    37    67   1
@<TRIPOS>SUBSTRUCTURE
     1  ACE      1

