@<TRIPOS>MOLECULE
3s8o_ligand_092
    67    68
SMALL
GAST_HUCK
****
This file was generated by PARSER (from files_GN.cpp)

@<TRIPOS>ATOM
      1 C          10.9094   -9.1823    3.9847 C.2         1 ACE       0.1753
      2 O           9.9922   -9.9753    3.7987 O.2         1 ACE      -0.3972
      3 CH3        12.1078   -9.6714    4.6233 C.3         1 ACE       0.0258
      4 N          10.7790   -7.8929    3.7026 N.am        1 ACE      -0.2628
      5 CA          9.6098   -7.2197    3.1965 C.3         1 ACE       0.1465
      6 C           8.4106   -7.4297    4.0237 C.2         1 ACE       0.2045
      7 O           8.5667   -7.7767    5.1872 O.2         1 ACE      -0.3944
      8 CB          9.4146   -7.4808    1.6642 C.3         1 ACE       0.0400
      9 CG         10.5296   -7.0443    0.7744 C.ar        1 ACE      -0.0004
     10 CD1        10.9907   -5.7079    0.8174 C.ar        1 ACE      -0.0239
     11 CD2        11.0826   -7.9101   -0.1976 C.ar        1 ACE      -0.0239
     12 CE1        11.9992   -5.2596   -0.0516 C.ar        1 ACE       0.0115
     13 CE2        12.0670   -7.4540   -1.0962 C.ar        1 ACE       0.0115
     14 CZ         12.5272   -6.1193   -1.0329 C.ar        1 ACE       0.1728
     15 OH         13.5599   -5.6901   -1.8188 O.3         1 ACE      -0.2040
     16 P          13.1119   -5.1486   -3.2131 P.3         1 ACE       0.1348
     17 O1P        14.2824   -4.6362   -3.8735 O.co2       1 ACE      -0.6653
     18 O2P        12.5703   -6.1884   -4.0496 O.co2       1 ACE      -0.6653
     19 O3P        12.1734   -4.0606   -3.1136 O.co2       1 ACE      -0.6653
     20 O           4.2950   -5.6564    3.2444 O.2         1 ACE      -0.3419
     21 CD          4.4570   -7.1498    6.9615 C.3         1 ACE      -0.0532
     22 CG          4.7821   -5.7825    6.3170 C.3         1 ACE      -0.0516
     23 CE          4.2879   -8.2557    5.8873 C.3         1 ACE      -0.0516
     24 CB          6.0226   -5.8680    5.3858 C.3         1 ACE      -0.0199
     25 CH          5.5462   -8.3613    4.9833 C.3         1 ACE      -0.0199
     26 N           7.1979   -7.0735    3.5873 N.am        1 ACE      -0.2738
     27 C           4.9384   -6.6979    3.2254 C.2         1 ACE       0.2267
     28 CA          5.9298   -7.0010    4.2875 C.3         1 ACE       0.1331
     29 N           4.7768   -7.5356    2.2006 N.am        1 ACE      -0.2608
     30 CA          3.8626   -7.4180    1.0934 C.3         1 ACE       0.1474
     31 C           3.0948   -8.6535    0.9830 C.2         1 ACE       0.2017
     32 O           3.6534   -9.7202    0.7721 O.2         1 ACE      -0.3945
     33 CB          4.6031   -7.0216   -0.2231 C.3         1 ACE       0.0774
     34 CG          5.4893   -8.0115   -0.8197 C.2         1 ACE       0.1781
     35 OD1         5.3054   -8.4131   -1.9603 O.2         1 ACE      -0.3970
     36 ND2         6.5373   -8.4776   -0.1809 N.am        1 ACE      -0.3007
     37 N           1.7875   -8.6851    1.1296 N.am        1 ACE      -0.2988
     38 H1         12.8743   -8.8964    4.7046 H           1 ACE       0.0467
     39 H2         12.5199  -10.5011    4.0485 H           1 ACE       0.0467
     40 H3         11.8643  -10.0206    5.6291 H           1 ACE       0.0467
     41 H4         11.5397   -7.3307    3.9229 H           1 ACE       0.1885
     42 H5          9.8312   -6.1555    3.3144 H           1 ACE       0.0840
     43 H6          8.5469   -6.9242    1.3067 H           1 ACE       0.0584
     44 H7          9.1968   -8.5458    1.5198 H           1 ACE       0.0584
     45 H8         10.5919   -5.0401    1.4820 H           1 ACE       0.0703
     46 H9         10.7584   -8.8775   -0.2734 H           1 ACE       0.0703
     47 H10        12.3387   -4.2968    0.0140 H           1 ACE       0.0736
     48 H11        12.4547   -8.0929   -1.7927 H           1 ACE       0.0736
     49 H12         3.5361   -7.0616    7.5442 H           1 ACE       0.0265
     50 H13         5.2639   -7.4237    7.6471 H           1 ACE       0.0265
     51 H14         4.9676   -5.0482    7.1031 H           1 ACE       0.0265
     52 H15         3.9152   -5.4461    5.7487 H           1 ACE       0.0265
     53 H16         3.4068   -8.0408    5.2751 H           1 ACE       0.0265
     54 H17         4.1227   -9.2158    6.3858 H           1 ACE       0.0265
     55 H18         6.8901   -6.0358    6.0267 H           1 ACE       0.0277
     56 H19         6.1735   -4.8942    4.9086 H           1 ACE       0.0277
     57 H20         5.3832   -9.1469    4.2409 H           1 ACE       0.0277
     58 H21         6.3614   -8.7028    5.6209 H           1 ACE       0.0277
     59 H22         7.1654   -6.7900    2.6624 H           1 ACE       0.1839
     60 H23         5.3472   -8.3202    2.1955 H           1 ACE       0.1891
     61 H24         3.1556   -6.6028    1.2884 H           1 ACE       0.0828
     62 H25         5.1960   -6.1236   -0.0266 H           1 ACE       0.0551
     63 H26         3.8427   -6.7356   -0.9577 H           1 ACE       0.0551
     64 H27         7.1160   -9.1295   -0.6092 H           1 ACE       0.1814
     65 H28         6.7394   -8.1758    0.7169 H           1 ACE       0.1814
     66 H29         1.3136   -9.5302    1.0630 H           1 ACE       0.1815
     67 H30         1.2925   -7.8692    1.3057 H           1 ACE       0.1815
@<TRIPOS>BOND
     1     1     2   2
     2     1     3   1
     3     4     1  am
     4     5     4   1
     5     6     5   1
     6     5     8   1
     7     6     7   2
     8    26     6  am
     9     8     9   1
    10     9    10  ar
    11     9    11  ar
    12    10    12  ar
    13    11    13  ar
    14    12    14  ar
    15    13    14  ar
    16    14    15   1
    17    15    16   1
    18    16    17  ar
    19    16    18  ar
    20    16    19  ar
    21    27    20   2
    22    22    21   1
    23    23    21   1
    24    24    22   1
    25    25    23   1
    26    28    24   1
    27    28    25   1
    28    28    26   1
    29    27    28   1
    30    27    29  am
    31    29    30   1
    32    30    31   1
    33    30    33   1
    34    31    32   2
    35    31    37  am
    36    33    34   1
    37    34    35   2
    38    34    36  am
    39     3    38   1
    40     3    39   1
    41     3    40   1
    42     4    41   1
    43     5    42   1
    44     8    43   1
    45     8    44   1
    46    10    45   1
    47    11    46   1
    48    12    47   1
    49    13    48   1
    50    21    49   1
    51    21    50   1
    52    22    51   1
    53    22    52   1
    54    23    53   1
    55    23    54   1
    56    24    55   1
    57    24    56   1
    58    25    57   1
    59    25    58   1
    60    26    59   1
    61    29    60   1
    62    30    61   1
    63    33    62   1
    64    33    63   1
    65    36    64   1
    66    36    65   1
    67    37    66   1
    68    37    67   1
@<TRIPOS>SUBSTRUCTURE
     1  ACE      1

