@<TRIPOS>MOLECULE
3s8o_ligand_000
    67    68
SMALL
GAST_HUCK
****
This file was generated by PARSER (from files_GN.cpp)

@<TRIPOS>ATOM
      1 C           7.3831   -7.6968   -2.1976 C.2         1 ACE       0.1753
      2 O           7.2896   -8.8417   -2.6205 O.2         1 ACE      -0.3972
      3 CH3         6.4383   -6.7111   -2.6687 C.3         1 ACE       0.0258
      4 N           8.3290   -7.3475   -1.3426 N.am        1 ACE      -0.2628
      5 CA          9.3240   -8.1991   -0.7477 C.3         1 ACE       0.1465
      6 C           9.6097   -7.6717    0.5808 C.2         1 ACE       0.2045
      7 O          10.2106   -6.6056    0.6724 O.2         1 ACE      -0.3944
      8 CB         10.6183   -8.2895   -1.6249 C.3         1 ACE       0.0400
      9 CG         10.6042   -9.3955   -2.6288 C.ar        1 ACE      -0.0004
     10 CD1        10.4997  -10.7423   -2.2020 C.ar        1 ACE      -0.0239
     11 CD2        10.7245   -9.1483   -4.0165 C.ar        1 ACE      -0.0239
     12 CE1        10.4341  -11.7907   -3.1330 C.ar        1 ACE       0.0115
     13 CE2        10.6850  -10.2037   -4.9445 C.ar        1 ACE       0.0115
     14 CZ         10.4963  -11.5459   -4.5187 C.ar        1 ACE       0.1728
     15 OH         10.1996  -12.6359   -5.3114 O.3         1 ACE      -0.2040
     16 P          10.4390  -12.7334   -6.8371 P.3         1 ACE       0.1348
     17 O1P         9.6228  -13.8362   -7.2994 O.co2       1 ACE      -0.6653
     18 O2P         9.9895  -11.5851   -7.5937 O.co2       1 ACE      -0.6653
     19 O3P        11.8014  -13.0622   -7.2012 O.co2       1 ACE      -0.6653
     20 O           7.7843   -6.5045    4.0538 O.2         1 ACE      -0.3419
     21 CD         10.9819   -8.2584    5.6179 C.3         1 ACE      -0.0532
     22 CG         10.7735   -6.8886    4.9320 C.3         1 ACE      -0.0516
     23 CE          9.8070   -9.2205    5.3277 C.3         1 ACE      -0.0516
     24 CB         10.4468   -7.0287    3.4185 C.3         1 ACE      -0.0199
     25 CH          9.5629   -9.3716    3.8007 C.3         1 ACE      -0.0199
     26 N           9.2138   -8.3570    1.6525 N.am        1 ACE      -0.2738
     27 C           7.9130   -7.5409    3.4151 C.2         1 ACE       0.2267
     28 CA          9.2634   -8.0185    3.0581 C.3         1 ACE       0.1331
     29 N           6.8291   -8.2303    3.0461 N.am        1 ACE      -0.2608
     30 CA          5.4666   -7.9771    3.4425 C.3         1 ACE       0.1474
     31 C           5.0098   -9.1219    4.2244 C.2         1 ACE       0.2017
     32 O           4.9293  -10.2375    3.7248 O.2         1 ACE      -0.3945
     33 CB          4.5631   -7.6023    2.2235 C.3         1 ACE       0.0774
     34 CG          4.0677   -8.7035    1.4159 C.2         1 ACE       0.1781
     35 OD1         4.7265   -9.1499    0.4896 O.2         1 ACE      -0.3970
     36 ND2         2.8919   -9.2408    1.6639 N.am        1 ACE      -0.3007
     37 N           4.7463   -9.0229    5.5097 N.am        1 ACE      -0.2988
     38 H1          6.6225   -5.7283   -2.2251 H           1 ACE       0.0467
     39 H2          5.4231   -7.0198   -2.4094 H           1 ACE       0.0467
     40 H3          6.5151   -6.6186   -3.7541 H           1 ACE       0.0467
     41 H4          8.3381   -6.4148   -1.0685 H           1 ACE       0.1885
     42 H5          8.9049   -9.2066   -0.6267 H           1 ACE       0.0840
     43 H6         11.4922   -8.4532   -0.9856 H           1 ACE       0.0584
     44 H7         10.7725   -7.3241   -2.1175 H           1 ACE       0.0584
     45 H8         10.4516  -10.9622   -1.2043 H           1 ACE       0.0703
     46 H9         10.8228   -8.1908   -4.3638 H           1 ACE       0.0703
     47 H10        10.3070  -12.7464   -2.7934 H           1 ACE       0.0736
     48 H11        10.7639   -9.9734   -5.9330 H           1 ACE       0.0736
     49 H12        11.0738   -8.1138    6.6957 H           1 ACE       0.0265
     50 H13        11.9138   -8.7029    5.2575 H           1 ACE       0.0265
     51 H14        11.6843   -6.2914    5.0456 H           1 ACE       0.0265
     52 H15         9.9674   -6.3494    5.4372 H           1 ACE       0.0265
     53 H16         8.8977   -8.8493    5.8062 H           1 ACE       0.0265
     54 H17        10.0399  -10.1967    5.7567 H           1 ACE       0.0265
     55 H18        11.3549   -7.3712    2.9096 H           1 ACE       0.0277
     56 H19        10.2266   -6.0258    3.0464 H           1 ACE       0.0277
     57 H20         8.7418  -10.0807    3.6489 H           1 ACE       0.0277
     58 H21        10.4560   -9.8357    3.3664 H           1 ACE       0.0277
     59 H22         8.7035   -9.1643    1.4595 H           1 ACE       0.1839
     60 H23         6.9735   -9.0195    2.4958 H           1 ACE       0.1891
     61 H24         5.4312   -7.0967    4.0946 H           1 ACE       0.0828
     62 H25         5.1112   -6.9131    1.5718 H           1 ACE       0.0551
     63 H26         3.7021   -7.0343    2.5993 H           1 ACE       0.0551
     64 H27         2.5584   -9.9581    1.1056 H           1 ACE       0.1814
     65 H28         2.3500   -8.9149    2.4024 H           1 ACE       0.1814
     66 H29         4.4860   -9.8080    6.0158 H           1 ACE       0.1815
     67 H30         4.8419   -8.1687    5.9603 H           1 ACE       0.1815
@<TRIPOS>BOND
     1     1     2   2
     2     1     3   1
     3     4     1  am
     4     5     4   1
     5     6     5   1
     6     5     8   1
     7     6     7   2
     8    26     6  am
     9     8     9   1
    10     9    10  ar
    11     9    11  ar
    12    10    12  ar
    13    11    13  ar
    14    12    14  ar
    15    13    14  ar
    16    14    15   1
    17    15    16   1
    18    16    17  ar
    19    16    18  ar
    20    16    19  ar
    21    27    20   2
    22    22    21   1
    23    23    21   1
    24    24    22   1
    25    25    23   1
    26    28    24   1
    27    28    25   1
    28    28    26   1
    29    27    28   1
    30    27    29  am
    31    29    30   1
    32    30    31   1
    33    30    33   1
    34    31    32   2
    35    31    37  am
    36    33    34   1
    37    34    35   2
    38    34    36  am
    39     3    38   1
    40     3    39   1
    41     3    40   1
    42     4    41   1
    43     5    42   1
    44     8    43   1
    45     8    44   1
    46    10    45   1
    47    11    46   1
    48    12    47   1
    49    13    48   1
    50    21    49   1
    51    21    50   1
    52    22    51   1
    53    22    52   1
    54    23    53   1
    55    23    54   1
    56    24    55   1
    57    24    56   1
    58    25    57   1
    59    25    58   1
    60    26    59   1
    61    29    60   1
    62    30    61   1
    63    33    62   1
    64    33    63   1
    65    36    64   1
    66    36    65   1
    67    37    66   1
    68    37    67   1
@<TRIPOS>SUBSTRUCTURE
     1  ACE      1

