@<TRIPOS>MOLECULE
3s8o_ligand_035
    67    68
SMALL
GAST_HUCK
****
This file was generated by PARSER (from files_GN.cpp)

@<TRIPOS>ATOM
      1 C          10.8245   -5.6856    0.3390 C.2         1 ACE       0.1753
      2 O          11.1523   -5.6745   -0.8423 O.2         1 ACE      -0.3972
      3 CH3        11.4876   -4.7571    1.2281 C.3         1 ACE       0.0258
      4 N           9.9242   -6.5412    0.8109 N.am        1 ACE      -0.2628
      5 CA          9.2503   -7.5883    0.0875 C.3         1 ACE       0.1465
      6 C           7.8623   -7.6040    0.5473 C.2         1 ACE       0.2045
      7 O           6.9848   -7.1484   -0.1773 O.2         1 ACE      -0.3944
      8 CB         10.0293   -8.9390    0.2913 C.3         1 ACE       0.0400
      9 CG         10.4608   -9.6177   -0.9637 C.ar        1 ACE      -0.0004
     10 CD1        10.1686  -10.9837   -1.1955 C.ar        1 ACE      -0.0239
     11 CD2        11.2583   -8.9320   -1.9158 C.ar        1 ACE      -0.0239
     12 CE1        10.6723  -11.6492   -2.3299 C.ar        1 ACE       0.0115
     13 CE2        11.7398   -9.5888   -3.0604 C.ar        1 ACE       0.0115
     14 CZ         11.4467  -10.9494   -3.2843 C.ar        1 ACE       0.1728
     15 OH         12.0581  -11.6293   -4.3023 O.3         1 ACE      -0.2040
     16 P          11.1682  -11.8298   -5.5552 P.3         1 ACE       0.1348
     17 O1P         9.8368  -12.2863   -5.2494 O.co2       1 ACE      -0.6653
     18 O2P        11.1372  -10.6806   -6.4346 O.co2       1 ACE      -0.6653
     19 O3P        11.8010  -12.8989   -6.2883 O.co2       1 ACE      -0.6653
     20 O           5.0312   -9.9592    2.1796 O.2         1 ACE      -0.3419
     21 CD          7.1689   -6.4603    5.0338 C.3         1 ACE      -0.0532
     22 CG          6.8530   -5.7434    3.7000 C.3         1 ACE      -0.0516
     23 CE          7.6741   -7.9008    4.7976 C.3         1 ACE      -0.0516
     24 CB          5.8697   -6.5680    2.8237 C.3         1 ACE      -0.0199
     25 CH          6.6816   -8.7105    3.9161 C.3         1 ACE      -0.0199
     26 N           7.5849   -8.0324    1.7772 N.am        1 ACE      -0.2738
     27 C           5.2999   -8.8181    1.8126 C.2         1 ACE       0.2267
     28 CA          6.3452   -8.0409    2.5261 C.3         1 ACE       0.1331
     29 N           4.6505   -8.3129    0.7642 N.am        1 ACE      -0.2608
     30 CA          3.5640   -8.8987    0.0214 C.3         1 ACE       0.1474
     31 C           3.9652   -9.2497   -1.3383 C.2         1 ACE       0.2017
     32 O           4.8956   -8.6926   -1.9080 O.2         1 ACE      -0.3945
     33 CB          2.3760   -7.8883    0.0404 C.3         1 ACE       0.0774
     34 CG          1.0977   -8.4753   -0.3289 C.2         1 ACE       0.1781
     35 OD1         0.6347   -9.3892    0.3394 O.2         1 ACE      -0.3970
     36 ND2         0.4030   -8.0595   -1.3686 N.am        1 ACE      -0.3007
     37 N           3.3254  -10.1790   -2.0162 N.am        1 ACE      -0.2988
     38 H1         11.1365   -4.8545    2.2618 H           1 ACE       0.0467
     39 H2         11.2983   -3.7313    0.8955 H           1 ACE       0.0467
     40 H3         12.5684   -4.9412    1.2123 H           1 ACE       0.0467
     41 H4          9.7353   -6.4903    1.7631 H           1 ACE       0.1885
     42 H5          9.2385   -7.3510   -0.9863 H           1 ACE       0.0840
     43 H6          9.4380   -9.6323    0.8937 H           1 ACE       0.0584
     44 H7         10.9375   -8.7582    0.8715 H           1 ACE       0.0584
     45 H8          9.6138  -11.5216   -0.5237 H           1 ACE       0.0703
     46 H9         11.5124   -7.9516   -1.7612 H           1 ACE       0.0703
     47 H10        10.4862  -12.6514   -2.4598 H           1 ACE       0.0736
     48 H11        12.3231   -9.0826   -3.7279 H           1 ACE       0.0736
     49 H12         6.2683   -6.4908    5.6478 H           1 ACE       0.0265
     50 H13         7.9289   -5.8952    5.5769 H           1 ACE       0.0265
     51 H14         7.7797   -5.5714    3.1439 H           1 ACE       0.0265
     52 H15         6.4121   -4.7659    3.9149 H           1 ACE       0.0265
     53 H16         7.7958   -8.4062    5.7570 H           1 ACE       0.0265
     54 H17         8.6547   -7.8708    4.3174 H           1 ACE       0.0265
     55 H18         5.7197   -6.0141    1.8923 H           1 ACE       0.0277
     56 H19         4.9020   -6.5950    3.3368 H           1 ACE       0.0277
     57 H20         5.7597   -8.8503    4.4886 H           1 ACE       0.0277
     58 H21         7.1151   -9.7009    3.7523 H           1 ACE       0.0277
     59 H22         8.3535   -8.3655    2.2608 H           1 ACE       0.1839
     60 H23         4.9115   -7.4228    0.4840 H           1 ACE       0.1891
     61 H24         3.2271   -9.8127    0.5112 H           1 ACE       0.0828
     62 H25         2.6082   -7.0379   -0.6149 H           1 ACE       0.0551
     63 H26         2.2603   -7.4821    1.0519 H           1 ACE       0.0551
     64 H27        -0.4628   -8.4682   -1.5555 H           1 ACE       0.1814
     65 H28         0.7538   -7.3589   -1.9529 H           1 ACE       0.1814
     66 H29         3.5818  -10.3836   -2.9264 H           1 ACE       0.1815
     67 H30         2.5899  -10.6596   -1.6149 H           1 ACE       0.1815
@<TRIPOS>BOND
     1     1     2   2
     2     1     3   1
     3     4     1  am
     4     5     4   1
     5     6     5   1
     6     5     8   1
     7     6     7   2
     8    26     6  am
     9     8     9   1
    10     9    10  ar
    11     9    11  ar
    12    10    12  ar
    13    11    13  ar
    14    12    14  ar
    15    13    14  ar
    16    14    15   1
    17    15    16   1
    18    16    17  ar
    19    16    18  ar
    20    16    19  ar
    21    27    20   2
    22    22    21   1
    23    23    21   1
    24    24    22   1
    25    25    23   1
    26    28    24   1
    27    28    25   1
    28    28    26   1
    29    27    28   1
    30    27    29  am
    31    29    30   1
    32    30    31   1
    33    30    33   1
    34    31    32   2
    35    31    37  am
    36    33    34   1
    37    34    35   2
    38    34    36  am
    39     3    38   1
    40     3    39   1
    41     3    40   1
    42     4    41   1
    43     5    42   1
    44     8    43   1
    45     8    44   1
    46    10    45   1
    47    11    46   1
    48    12    47   1
    49    13    48   1
    50    21    49   1
    51    21    50   1
    52    22    51   1
    53    22    52   1
    54    23    53   1
    55    23    54   1
    56    24    55   1
    57    24    56   1
    58    25    57   1
    59    25    58   1
    60    26    59   1
    61    29    60   1
    62    30    61   1
    63    33    62   1
    64    33    63   1
    65    36    64   1
    66    36    65   1
    67    37    66   1
    68    37    67   1
@<TRIPOS>SUBSTRUCTURE
     1  ACE      1

