@<TRIPOS>MOLECULE
3s8o_ligand_075
    67    68
SMALL
GAST_HUCK
****
This file was generated by PARSER (from files_GN.cpp)

@<TRIPOS>ATOM
      1 C           8.8268   -8.0583    4.3497 C.2         1 ACE       0.1753
      2 O           9.1154   -9.1942    3.9875 O.2         1 ACE      -0.3972
      3 CH3         9.8623   -7.2609    4.9679 C.3         1 ACE       0.0258
      4 N           7.6117   -7.5563    4.1862 N.am        1 ACE      -0.2628
      5 CA          6.4411   -8.2014    3.6408 C.3         1 ACE       0.1465
      6 C           6.1267   -7.5166    2.3809 C.2         1 ACE       0.2045
      7 O           5.8295   -6.3330    2.4328 O.2         1 ACE      -0.3944
      8 CB          5.3076   -8.2327    4.7379 C.3         1 ACE       0.0400
      9 CG          3.9533   -7.7682    4.3220 C.ar        1 ACE      -0.0004
     10 CD1         3.5123   -6.4596    4.6308 C.ar        1 ACE      -0.0239
     11 CD2         3.1055   -8.6044    3.5595 C.ar        1 ACE      -0.0239
     12 CE1         2.2760   -5.9875    4.1579 C.ar        1 ACE       0.0115
     13 CE2         1.8640   -8.1342    3.0946 C.ar        1 ACE       0.0115
     14 CZ          1.4401   -6.8201    3.3861 C.ar        1 ACE       0.1728
     15 OH          0.2989   -6.2875    2.8486 O.3         1 ACE      -0.2040
     16 P          -1.0255   -6.9088    3.3734 P.3         1 ACE       0.1348
     17 O1P        -1.1133   -6.9386    4.8122 O.co2       1 ACE      -0.6653
     18 O2P        -2.1218   -6.1089    2.8854 O.co2       1 ACE      -0.6653
     19 O3P        -1.2095   -8.2440    2.8557 O.co2       1 ACE      -0.6653
     20 O           4.4505   -9.4633   -0.4511 O.2         1 ACE      -0.3419
     21 CD          8.7103   -6.4796   -0.9396 C.3         1 ACE      -0.0532
     22 CG          8.5633   -8.0036   -0.7155 C.3         1 ACE      -0.0516
     23 CE          7.6403   -5.6927   -0.1433 C.3         1 ACE      -0.0516
     24 CB          7.1164   -8.4845   -1.0056 C.3         1 ACE      -0.0199
     25 CH          6.2049   -6.2137   -0.4402 C.3         1 ACE      -0.0199
     26 N           6.2029   -8.1749    1.2248 N.am        1 ACE      -0.2738
     27 C           4.6840   -8.2634   -0.5628 C.2         1 ACE       0.2267
     28 CA          6.0116   -7.7523   -0.1498 C.3         1 ACE       0.1331
     29 N           3.7005   -7.4626   -0.9666 N.am        1 ACE      -0.2608
     30 CA          2.4340   -7.7936   -1.5736 C.3         1 ACE       0.1474
     31 C           1.6373   -8.8101   -0.8905 C.2         1 ACE       0.2017
     32 O           2.0187   -9.3753    0.1237 O.2         1 ACE      -0.3945
     33 CB          2.5817   -7.9634   -3.1340 C.3         1 ACE       0.0774
     34 CG          2.1198   -9.2041   -3.7489 C.2         1 ACE       0.1781
     35 OD1         1.1422   -9.2074   -4.4866 O.2         1 ACE      -0.3970
     36 ND2         2.7615  -10.3389   -3.6006 N.am        1 ACE      -0.3007
     37 N           0.4367   -9.1268   -1.3288 N.am        1 ACE      -0.2988
     38 H1          9.4921   -6.2755    5.2637 H           1 ACE       0.0467
     39 H2         10.6900   -7.1210    4.2701 H           1 ACE       0.0467
     40 H3         10.2355   -7.7673    5.8606 H           1 ACE       0.0467
     41 H4          7.4866   -6.6380    4.4787 H           1 ACE       0.1885
     42 H5          6.6726   -9.2505    3.4118 H           1 ACE       0.0840
     43 H6          5.6240   -7.6509    5.6088 H           1 ACE       0.0584
     44 H7          5.2044   -9.2564    5.1152 H           1 ACE       0.0584
     45 H8          4.1064   -5.8258    5.1715 H           1 ACE       0.0703
     46 H9          3.3978   -9.5560    3.3249 H           1 ACE       0.0703
     47 H10         1.9899   -5.0272    4.3659 H           1 ACE       0.0736
     48 H11         1.2683   -8.7470    2.5360 H           1 ACE       0.0736
     49 H12         8.6015   -6.2569   -2.0052 H           1 ACE       0.0265
     50 H13         9.7092   -6.1613   -0.6282 H           1 ACE       0.0265
     51 H14         8.8377   -8.2509    0.3140 H           1 ACE       0.0265
     52 H15         9.2568   -8.5292   -1.3810 H           1 ACE       0.0265
     53 H16         7.7090   -4.6310   -0.4124 H           1 ACE       0.0265
     54 H17         7.8616   -5.7736    0.9250 H           1 ACE       0.0265
     55 H18         7.0909   -9.5660   -0.8319 H           1 ACE       0.0277
     56 H19         6.9177   -8.3325   -2.0737 H           1 ACE       0.0277
     57 H20         5.9951   -6.0183   -1.4959 H           1 ACE       0.0277
     58 H21         5.4982   -5.6120    0.1278 H           1 ACE       0.0277
     59 H22         6.4321   -9.1133    1.3169 H           1 ACE       0.1839
     60 H23         3.8936   -6.5101   -0.9235 H           1 ACE       0.1891
     61 H24         1.8632   -6.8729   -1.4263 H           1 ACE       0.0828
     62 H25         3.6273   -7.8390   -3.4268 H           1 ACE       0.0551
     63 H26         2.0464   -7.1319   -3.6096 H           1 ACE       0.0551
     64 H27         2.4678  -11.1273   -4.0866 H           1 ACE       0.1814
     65 H28         3.5529  -10.3814   -3.0457 H           1 ACE       0.1814
     66 H29        -0.0878   -9.8044   -0.8642 H           1 ACE       0.1815
     67 H30         0.0710   -8.6966   -2.1207 H           1 ACE       0.1815
@<TRIPOS>BOND
     1     1     2   2
     2     1     3   1
     3     4     1  am
     4     5     4   1
     5     6     5   1
     6     5     8   1
     7     6     7   2
     8    26     6  am
     9     8     9   1
    10     9    10  ar
    11     9    11  ar
    12    10    12  ar
    13    11    13  ar
    14    12    14  ar
    15    13    14  ar
    16    14    15   1
    17    15    16   1
    18    16    17  ar
    19    16    18  ar
    20    16    19  ar
    21    27    20   2
    22    22    21   1
    23    23    21   1
    24    24    22   1
    25    25    23   1
    26    28    24   1
    27    28    25   1
    28    28    26   1
    29    27    28   1
    30    27    29  am
    31    29    30   1
    32    30    31   1
    33    30    33   1
    34    31    32   2
    35    31    37  am
    36    33    34   1
    37    34    35   2
    38    34    36  am
    39     3    38   1
    40     3    39   1
    41     3    40   1
    42     4    41   1
    43     5    42   1
    44     8    43   1
    45     8    44   1
    46    10    45   1
    47    11    46   1
    48    12    47   1
    49    13    48   1
    50    21    49   1
    51    21    50   1
    52    22    51   1
    53    22    52   1
    54    23    53   1
    55    23    54   1
    56    24    55   1
    57    24    56   1
    58    25    57   1
    59    25    58   1
    60    26    59   1
    61    29    60   1
    62    30    61   1
    63    33    62   1
    64    33    63   1
    65    36    64   1
    66    36    65   1
    67    37    66   1
    68    37    67   1
@<TRIPOS>SUBSTRUCTURE
     1  ACE      1

