@<TRIPOS>MOLECULE
3s8o_ligand_096
    67    68
SMALL
GAST_HUCK
****
This file was generated by PARSER (from files_GN.cpp)

@<TRIPOS>ATOM
      1 C          11.5645   -6.6017   -1.2939 C.2         1 ACE       0.1753
      2 O          11.4767   -7.3533   -0.3325 O.2         1 ACE      -0.3972
      3 CH3        11.7875   -5.1978   -1.0461 C.3         1 ACE       0.0258
      4 N          11.4517   -7.0462   -2.5418 N.am        1 ACE      -0.2628
      5 CA         11.2370   -8.4096   -2.9603 C.3         1 ACE       0.1465
      6 C          12.4348   -9.1905   -2.6672 C.2         1 ACE       0.2045
      7 O          12.3471  -10.0856   -1.8344 O.2         1 ACE      -0.3944
      8 CB         10.8040   -8.4058   -4.4662 C.3         1 ACE       0.0400
      9 CG         10.4632   -9.6782   -5.1843 C.ar        1 ACE      -0.0004
     10 CD1        10.8637  -10.9660   -4.7550 C.ar        1 ACE      -0.0239
     11 CD2         9.7288   -9.5830   -6.3909 C.ar        1 ACE      -0.0239
     12 CE1        10.5821  -12.1144   -5.5208 C.ar        1 ACE       0.0115
     13 CE2         9.4056  -10.7312   -7.1373 C.ar        1 ACE       0.0115
     14 CZ          9.8534  -12.0017   -6.7227 C.ar        1 ACE       0.1728
     15 OH          9.4687  -13.1370   -7.3794 O.3         1 ACE      -0.2040
     16 P          10.4089  -13.5597   -8.5392 P.3         1 ACE       0.1348
     17 O1P        11.7395  -13.9029   -8.0980 O.co2       1 ACE      -0.6653
     18 O2P         9.8216  -14.7317   -9.1410 O.co2       1 ACE      -0.6653
     19 O3P        10.4877  -12.5570   -9.5778 O.co2       1 ACE      -0.6653
     20 O          16.5197   -8.4639   -1.7161 O.2         1 ACE      -0.3419
     21 CD         14.6489  -12.3260   -4.1641 C.3         1 ACE      -0.0532
     22 CG         14.5560  -11.1055   -5.1101 C.3         1 ACE      -0.0516
     23 CE         14.3135  -11.9650   -2.6997 C.3         1 ACE      -0.0516
     24 CB         15.3602   -9.8833   -4.5833 C.3         1 ACE      -0.0199
     25 CH         15.1065  -10.7228   -2.2272 C.3         1 ACE      -0.0199
     26 N          13.5922   -8.8793   -3.2437 N.am        1 ACE      -0.2738
     27 C          15.7613   -8.3232   -2.6752 C.2         1 ACE       0.2267
     28 CA         14.9227   -9.4433   -3.1411 C.3         1 ACE       0.1331
     29 N          15.7286   -7.1326   -3.2895 N.am        1 ACE      -0.2608
     30 CA         16.4435   -5.9397   -2.9238 C.3         1 ACE       0.1474
     31 C          15.4799   -4.8539   -2.8290 C.2         1 ACE       0.2017
     32 O          14.8475   -4.6853   -1.7989 O.2         1 ACE      -0.3945
     33 CB         17.5975   -5.6931   -3.9458 C.3         1 ACE       0.0774
     34 CG         18.7023   -6.6208   -3.7848 C.2         1 ACE       0.1781
     35 OD1        19.4959   -6.4844   -2.8649 O.2         1 ACE      -0.3970
     36 ND2        18.8629   -7.6600   -4.5777 N.am        1 ACE      -0.3007
     37 N          15.1947   -4.0626   -3.8408 N.am        1 ACE      -0.2988
     38 H1         11.8917   -4.6356   -1.9764 H           1 ACE       0.0467
     39 H2         12.7001   -5.0730   -0.4619 H           1 ACE       0.0467
     40 H3         10.9485   -4.7838   -0.4864 H           1 ACE       0.0467
     41 H4         11.4960   -6.3761   -3.2453 H           1 ACE       0.1885
     42 H5         10.3754   -8.7906   -2.3931 H           1 ACE       0.0840
     43 H6         11.5716   -7.9012   -5.0590 H           1 ACE       0.0584
     44 H7          9.9099   -7.7701   -4.5180 H           1 ACE       0.0584
     45 H8         11.3669  -11.1013   -3.8828 H           1 ACE       0.0703
     46 H9          9.3970   -8.6749   -6.7289 H           1 ACE       0.0703
     47 H10        10.8886  -13.0236   -5.1799 H           1 ACE       0.0736
     48 H11         8.8397  -10.6426   -7.9847 H           1 ACE       0.0736
     49 H12        15.6561  -12.7479   -4.2028 H           1 ACE       0.0265
     50 H13        13.9435  -13.0894   -4.4920 H           1 ACE       0.0265
     51 H14        13.5059  -10.8295   -5.2251 H           1 ACE       0.0265
     52 H15        14.9324  -11.3885   -6.0960 H           1 ACE       0.0265
     53 H16        14.5589  -12.8136   -2.0533 H           1 ACE       0.0265
     54 H17        13.2384  -11.7657   -2.6067 H           1 ACE       0.0265
     55 H18        15.2301   -9.0620   -5.2955 H           1 ACE       0.0277
     56 H19        16.4247  -10.1308   -4.5738 H           1 ACE       0.0277
     57 H20        16.1720  -10.9995   -2.2127 H           1 ACE       0.0277
     58 H21        14.8354  -10.5029   -1.1981 H           1 ACE       0.0277
     59 H22        13.5410   -8.1070   -3.8310 H           1 ACE       0.1839
     60 H23        15.1830   -7.0787   -4.0927 H           1 ACE       0.1891
     61 H24        16.9038   -6.0464   -1.9311 H           1 ACE       0.0828
     62 H25        17.9836   -4.6788   -3.8211 H           1 ACE       0.0551
     63 H26        17.2014   -5.7626   -4.9648 H           1 ACE       0.0551
     64 H27        19.5989   -8.2768   -4.4287 H           1 ACE       0.1814
     65 H28        18.2366   -7.8255   -5.3019 H           1 ACE       0.1814
     66 H29        14.5367   -3.3598   -3.7300 H           1 ACE       0.1815
     67 H30        15.6539   -4.1605   -4.6869 H           1 ACE       0.1815
@<TRIPOS>BOND
     1     1     2   2
     2     1     3   1
     3     4     1  am
     4     5     4   1
     5     6     5   1
     6     5     8   1
     7     6     7   2
     8    26     6  am
     9     8     9   1
    10     9    10  ar
    11     9    11  ar
    12    10    12  ar
    13    11    13  ar
    14    12    14  ar
    15    13    14  ar
    16    14    15   1
    17    15    16   1
    18    16    17  ar
    19    16    18  ar
    20    16    19  ar
    21    27    20   2
    22    22    21   1
    23    23    21   1
    24    24    22   1
    25    25    23   1
    26    28    24   1
    27    28    25   1
    28    28    26   1
    29    27    28   1
    30    27    29  am
    31    29    30   1
    32    30    31   1
    33    30    33   1
    34    31    32   2
    35    31    37  am
    36    33    34   1
    37    34    35   2
    38    34    36  am
    39     3    38   1
    40     3    39   1
    41     3    40   1
    42     4    41   1
    43     5    42   1
    44     8    43   1
    45     8    44   1
    46    10    45   1
    47    11    46   1
    48    12    47   1
    49    13    48   1
    50    21    49   1
    51    21    50   1
    52    22    51   1
    53    22    52   1
    54    23    53   1
    55    23    54   1
    56    24    55   1
    57    24    56   1
    58    25    57   1
    59    25    58   1
    60    26    59   1
    61    29    60   1
    62    30    61   1
    63    33    62   1
    64    33    63   1
    65    36    64   1
    66    36    65   1
    67    37    66   1
    68    37    67   1
@<TRIPOS>SUBSTRUCTURE
     1  ACE      1

