@<TRIPOS>MOLECULE
3s8o_ligand_023
    67    68
SMALL
GAST_HUCK
****
This file was generated by PARSER (from files_GN.cpp)

@<TRIPOS>ATOM
      1 C           7.5933   -8.9273   -7.4014 C.2         1 ACE       0.1753
      2 O           7.7071   -9.7566   -8.3003 O.2         1 ACE      -0.3972
      3 CH3         6.3611   -8.1714   -7.3157 C.3         1 ACE       0.0258
      4 N           8.5641   -8.6983   -6.5297 N.am        1 ACE      -0.2628
      5 CA          9.7848   -9.4471   -6.3687 C.3         1 ACE       0.1465
      6 C          10.4319   -8.9896   -5.1385 C.2         1 ACE       0.2045
      7 O          10.8084   -7.8227   -5.0675 O.2         1 ACE      -0.3944
      8 CB         10.7871   -9.3448   -7.5725 C.3         1 ACE       0.0400
      9 CG         10.6676  -10.4169   -8.5985 C.ar        1 ACE      -0.0004
     10 CD1        10.5306  -10.1071   -9.9722 C.ar        1 ACE      -0.0239
     11 CD2        10.7964  -11.7742   -8.2265 C.ar        1 ACE      -0.0239
     12 CE1        10.4905  -11.1291  -10.9403 C.ar        1 ACE       0.0115
     13 CE2        10.7765  -12.7966   -9.1969 C.ar        1 ACE       0.0115
     14 CZ         10.5872  -12.4844  -10.5591 C.ar        1 ACE       0.1728
     15 OH         10.5969  -13.4597  -11.5212 O.3         1 ACE      -0.2040
     16 P           9.2153  -14.1367  -11.7460 P.3         1 ACE       0.1348
     17 O1P         9.2912  -14.8732  -12.9872 O.co2       1 ACE      -0.6653
     18 O2P         8.8757  -15.0811  -10.7072 O.co2       1 ACE      -0.6653
     19 O3P         8.1361  -13.1920  -11.9100 O.co2       1 ACE      -0.6653
     20 O          13.1806   -8.3707   -3.4626 O.2         1 ACE      -0.3419
     21 CD          8.9579   -9.9273   -0.9466 C.3         1 ACE      -0.0532
     22 CG          9.5368  -11.1663   -1.6742 C.3         1 ACE      -0.0516
     23 CE          9.2367   -8.6126   -1.7104 C.3         1 ACE      -0.0516
     24 CB         11.0348  -10.9753   -2.0482 C.3         1 ACE      -0.0199
     25 CH         10.7442   -8.4623   -2.0424 C.3         1 ACE      -0.0199
     26 N          10.6476   -9.8504   -4.1488 N.am        1 ACE      -0.2738
     27 C          12.7687   -9.4782   -3.1330 C.2         1 ACE       0.2267
     28 CA         11.3238   -9.6669   -2.8793 C.3         1 ACE       0.1331
     29 N          13.6317  -10.4933   -3.0870 N.am        1 ACE      -0.2608
     30 CA         15.0580  -10.4452   -3.2669 C.3         1 ACE       0.1474
     31 C          15.4129  -10.0538   -4.6257 C.2         1 ACE       0.2017
     32 O          16.1640   -9.1097   -4.8266 O.2         1 ACE      -0.3945
     33 CB         15.6970  -11.8227   -2.9017 C.3         1 ACE       0.0774
     34 CG         15.4613  -12.2375   -1.5273 C.2         1 ACE       0.1781
     35 OD1        14.3268  -12.4413   -1.1229 O.2         1 ACE      -0.3970
     36 ND2        16.4501  -12.4680   -0.6913 N.am        1 ACE      -0.3007
     37 N          14.9318  -10.6863   -5.6757 N.am        1 ACE      -0.2988
     38 H1          6.3229   -7.5590   -6.4092 H           1 ACE       0.0467
     39 H2          5.5092   -8.8534   -7.2958 H           1 ACE       0.0467
     40 H3          6.2711   -7.5150   -8.1838 H           1 ACE       0.0467
     41 H4          8.3877   -8.0100   -5.8657 H           1 ACE       0.1885
     42 H5          9.5003  -10.4979   -6.2466 H           1 ACE       0.0840
     43 H6         11.8219   -9.4043   -7.2086 H           1 ACE       0.0584
     44 H7         10.6833   -8.3550   -8.0248 H           1 ACE       0.0584
     45 H8         10.4668   -9.1337  -10.2802 H           1 ACE       0.0703
     46 H9         10.9389  -12.0294   -7.2454 H           1 ACE       0.0703
     47 H10        10.3992  -10.8843  -11.9306 H           1 ACE       0.0736
     48 H11        10.8976  -13.7735   -8.9095 H           1 ACE       0.0736
     49 H12         9.3982   -9.8645    0.0526 H           1 ACE       0.0265
     50 H13         7.8772  -10.0484   -0.8381 H           1 ACE       0.0265
     51 H14         8.9537  -11.3603   -2.5793 H           1 ACE       0.0265
     52 H15         9.4352  -12.0411   -1.0241 H           1 ACE       0.0265
     53 H16         8.9172   -7.7668   -1.0962 H           1 ACE       0.0265
     54 H17         8.6524   -8.5921   -2.6343 H           1 ACE       0.0265
     55 H18        11.3359  -11.8625   -2.6120 H           1 ACE       0.0277
     56 H19        11.6153  -10.9635   -1.1223 H           1 ACE       0.0277
     57 H20        11.2996   -8.3763   -1.0999 H           1 ACE       0.0277
     58 H21        10.8780   -7.5150   -2.5707 H           1 ACE       0.0277
     59 H22        10.3025  -10.7472   -4.2987 H           1 ACE       0.1839
     60 H23        13.2676  -11.3623   -2.8775 H           1 ACE       0.1891
     61 H24        15.4594   -9.7069   -2.5594 H           1 ACE       0.0828
     62 H25        16.7762  -11.7657   -3.0792 H           1 ACE       0.0551
     63 H26        15.3034  -12.6015   -3.5647 H           1 ACE       0.0551
     64 H27        16.2623  -12.7879    0.2088 H           1 ACE       0.1814
     65 H28        17.3682  -12.3320   -0.9677 H           1 ACE       0.1814
     66 H29        15.1795  -10.4006   -6.5699 H           1 ACE       0.1815
     67 H30        14.3200  -11.4328   -5.5609 H           1 ACE       0.1815
@<TRIPOS>BOND
     1     1     2   2
     2     1     3   1
     3     4     1  am
     4     5     4   1
     5     6     5   1
     6     5     8   1
     7     6     7   2
     8    26     6  am
     9     8     9   1
    10     9    10  ar
    11     9    11  ar
    12    10    12  ar
    13    11    13  ar
    14    12    14  ar
    15    13    14  ar
    16    14    15   1
    17    15    16   1
    18    16    17  ar
    19    16    18  ar
    20    16    19  ar
    21    27    20   2
    22    22    21   1
    23    23    21   1
    24    24    22   1
    25    25    23   1
    26    28    24   1
    27    28    25   1
    28    28    26   1
    29    27    28   1
    30    27    29  am
    31    29    30   1
    32    30    31   1
    33    30    33   1
    34    31    32   2
    35    31    37  am
    36    33    34   1
    37    34    35   2
    38    34    36  am
    39     3    38   1
    40     3    39   1
    41     3    40   1
    42     4    41   1
    43     5    42   1
    44     8    43   1
    45     8    44   1
    46    10    45   1
    47    11    46   1
    48    12    47   1
    49    13    48   1
    50    21    49   1
    51    21    50   1
    52    22    51   1
    53    22    52   1
    54    23    53   1
    55    23    54   1
    56    24    55   1
    57    24    56   1
    58    25    57   1
    59    25    58   1
    60    26    59   1
    61    29    60   1
    62    30    61   1
    63    33    62   1
    64    33    63   1
    65    36    64   1
    66    36    65   1
    67    37    66   1
    68    37    67   1
@<TRIPOS>SUBSTRUCTURE
     1  ACE      1

