@<TRIPOS>MOLECULE
3s8o_ligand_042
    67    68
SMALL
GAST_HUCK
****
This file was generated by PARSER (from files_GN.cpp)

@<TRIPOS>ATOM
      1 C           7.2165   -7.7160   -1.9015 C.2         1 ACE       0.1753
      2 O           7.2252   -8.7694   -2.5204 O.2         1 ACE      -0.3972
      3 CH3         6.0625   -6.8582   -2.0521 C.3         1 ACE       0.0258
      4 N           8.2340   -7.3518   -1.1284 N.am        1 ACE      -0.2628
      5 CA          9.4395   -8.0994   -0.8585 C.3         1 ACE       0.1465
      6 C           9.5932   -8.4366    0.5649 C.2         1 ACE       0.2045
      7 O          10.4732   -9.2382    0.8563 O.2         1 ACE      -0.3944
      8 CB         10.6594   -7.3223   -1.4673 C.3         1 ACE       0.0400
      9 CG         11.0822   -6.0933   -0.7326 C.ar        1 ACE      -0.0004
     10 CD1        10.9418   -4.7849   -1.2601 C.ar        1 ACE      -0.0239
     11 CD2        11.6527   -6.2385    0.5514 C.ar        1 ACE      -0.0239
     12 CE1        11.3042   -3.6567   -0.4887 C.ar        1 ACE       0.0115
     13 CE2        11.9800   -5.1189    1.3291 C.ar        1 ACE       0.0115
     14 CZ         11.8158   -3.8147    0.8195 C.ar        1 ACE       0.1728
     15 OH         11.9984   -2.7220    1.6313 O.3         1 ACE      -0.2040
     16 P          13.4649   -2.4383    2.0690 P.3         1 ACE       0.1348
     17 O1P        13.4422   -1.9333    3.4207 O.co2       1 ACE      -0.6653
     18 O2P        14.2888   -3.6219    2.0782 O.co2       1 ACE      -0.6653
     19 O3P        14.0799   -1.4326    1.2376 O.co2       1 ACE      -0.6653
     20 O           7.2080   -6.5910    3.9317 O.2         1 ACE      -0.3419
     21 CD         10.6404   -8.0032    5.5062 C.3         1 ACE      -0.0532
     22 CG         10.1778   -6.6525    4.9062 C.3         1 ACE      -0.0516
     23 CE          9.6319   -9.1310    5.1794 C.3         1 ACE      -0.0516
     24 CB          9.9202   -6.7782    3.3790 C.3         1 ACE      -0.0199
     25 CH          9.3936   -9.2498    3.6481 C.3         1 ACE      -0.0199
     26 N           8.8381   -7.8856    1.5145 N.am        1 ACE      -0.2738
     27 C           7.5081   -7.6326    3.3560 C.2         1 ACE       0.2267
     28 CA          8.9069   -7.9104    2.9684 C.3         1 ACE       0.1331
     29 N           6.5359   -8.4480    2.9507 N.am        1 ACE      -0.2608
     30 CA          5.1094   -8.3268    3.1288 C.3         1 ACE       0.1474
     31 C           4.5428   -7.1567    2.4581 C.2         1 ACE       0.2017
     32 O           3.7321   -6.4184    2.9969 O.2         1 ACE      -0.3945
     33 CB          4.6903   -8.5790    4.6150 C.3         1 ACE       0.0774
     34 CG          5.0566   -7.5500    5.5755 C.2         1 ACE       0.1781
     35 OD1         4.4379   -6.4992    5.6296 O.2         1 ACE      -0.3970
     36 ND2         6.0212   -7.7249    6.4535 N.am        1 ACE      -0.3007
     37 N           4.8198   -6.9054    1.1972 N.am        1 ACE      -0.2988
     38 H1          6.1451   -5.9582   -1.4400 H           1 ACE       0.0467
     39 H2          5.1590   -7.3943   -1.7525 H           1 ACE       0.0467
     40 H3          5.9586   -6.5554   -3.0961 H           1 ACE       0.0467
     41 H4          8.1567   -6.4833   -0.7027 H           1 ACE       0.1885
     42 H5          9.3941   -9.0550   -1.3973 H           1 ACE       0.0840
     43 H6         10.4284   -7.0669   -2.5073 H           1 ACE       0.0584
     44 H7         11.5178   -8.0019   -1.5177 H           1 ACE       0.0584
     45 H8         10.5488   -4.6445   -2.1937 H           1 ACE       0.0703
     46 H9         11.7961   -7.1693    0.9459 H           1 ACE       0.0703
     47 H10        11.1677   -2.7179   -0.8704 H           1 ACE       0.0736
     48 H11        12.3206   -5.2633    2.2804 H           1 ACE       0.0736
     49 H12        10.7520   -7.9091    6.5879 H           1 ACE       0.0265
     50 H13        11.6262   -8.2632    5.1019 H           1 ACE       0.0265
     51 H14        10.9516   -5.9000    5.0862 H           1 ACE       0.0265
     52 H15         9.2680   -6.3221    5.4118 H           1 ACE       0.0265
     53 H16         8.6875   -8.9368    5.6927 H           1 ACE       0.0265
     54 H17        10.0309  -10.0712    5.5646 H           1 ACE       0.0265
     55 H18        10.8831   -6.9941    2.9141 H           1 ACE       0.0277
     56 H19         9.5845   -5.8080    2.9973 H           1 ACE       0.0277
     57 H20         8.6866  -10.0601    3.4609 H           1 ACE       0.0277
     58 H21        10.3476   -9.5601    3.2238 H           1 ACE       0.0277
     59 H22         8.1875   -7.2558    1.1705 H           1 ACE       0.1839
     60 H23         6.8226   -9.2207    2.4308 H           1 ACE       0.1891
     61 H24         4.6943   -9.1785    2.5788 H           1 ACE       0.0828
     62 H25         5.1301   -9.5321    4.9254 H           1 ACE       0.0551
     63 H26         3.6059   -8.7195    4.6658 H           1 ACE       0.0551
     64 H27         6.2291   -7.0222    7.0885 H           1 ACE       0.1814
     65 H28         6.5280   -8.5507    6.4656 H           1 ACE       0.1814
     66 H29         4.4092   -6.1472    0.7506 H           1 ACE       0.1815
     67 H30         5.4406   -7.4700    0.7092 H           1 ACE       0.1815
@<TRIPOS>BOND
     1     1     2   2
     2     1     3   1
     3     4     1  am
     4     5     4   1
     5     6     5   1
     6     5     8   1
     7     6     7   2
     8    26     6  am
     9     8     9   1
    10     9    10  ar
    11     9    11  ar
    12    10    12  ar
    13    11    13  ar
    14    12    14  ar
    15    13    14  ar
    16    14    15   1
    17    15    16   1
    18    16    17  ar
    19    16    18  ar
    20    16    19  ar
    21    27    20   2
    22    22    21   1
    23    23    21   1
    24    24    22   1
    25    25    23   1
    26    28    24   1
    27    28    25   1
    28    28    26   1
    29    27    28   1
    30    27    29  am
    31    29    30   1
    32    30    31   1
    33    30    33   1
    34    31    32   2
    35    31    37  am
    36    33    34   1
    37    34    35   2
    38    34    36  am
    39     3    38   1
    40     3    39   1
    41     3    40   1
    42     4    41   1
    43     5    42   1
    44     8    43   1
    45     8    44   1
    46    10    45   1
    47    11    46   1
    48    12    47   1
    49    13    48   1
    50    21    49   1
    51    21    50   1
    52    22    51   1
    53    22    52   1
    54    23    53   1
    55    23    54   1
    56    24    55   1
    57    24    56   1
    58    25    57   1
    59    25    58   1
    60    26    59   1
    61    29    60   1
    62    30    61   1
    63    33    62   1
    64    33    63   1
    65    36    64   1
    66    36    65   1
    67    37    66   1
    68    37    67   1
@<TRIPOS>SUBSTRUCTURE
     1  ACE      1

