@<TRIPOS>MOLECULE
3s8o_ligand_071
    67    68
SMALL
GAST_HUCK
****
This file was generated by PARSER (from files_GN.cpp)

@<TRIPOS>ATOM
      1 C          10.5098   -7.5583    0.9992 C.2         1 ACE       0.1753
      2 O          10.9777   -8.6615    1.2555 O.2         1 ACE      -0.3972
      3 CH3         9.9327   -6.7983    2.0857 C.3         1 ACE       0.0258
      4 N          10.5119   -7.0608   -0.2308 N.am        1 ACE      -0.2628
      5 CA         11.0527   -7.6605   -1.4225 C.3         1 ACE       0.1465
      6 C          12.0628   -6.7529   -1.9642 C.2         1 ACE       0.2045
      7 O          12.9221   -6.3344   -1.1948 O.2         1 ACE      -0.3944
      8 CB          9.8268   -8.0111   -2.3347 C.3         1 ACE       0.0400
      9 CG         10.0911   -8.7453   -3.6117 C.ar        1 ACE      -0.0004
     10 CD1        11.0300   -9.8022   -3.6889 C.ar        1 ACE      -0.0239
     11 CD2         9.3639   -8.4142   -4.7802 C.ar        1 ACE      -0.0239
     12 CE1        11.2637  -10.4731   -4.9026 C.ar        1 ACE       0.0115
     13 CE2         9.5574   -9.1244   -5.9787 C.ar        1 ACE       0.0115
     14 CZ         10.4965  -10.1725   -6.0492 C.ar        1 ACE       0.1728
     15 OH         10.6181  -10.8481   -7.2396 O.3         1 ACE      -0.2040
     16 P          10.3153  -12.3760   -7.2086 P.3         1 ACE       0.1348
     17 O1P         9.6107  -12.8211   -6.0264 O.co2       1 ACE      -0.6653
     18 O2P         9.5200  -12.7291   -8.3611 O.co2       1 ACE      -0.6653
     19 O3P        11.5589  -13.0892   -7.3267 O.co2       1 ACE      -0.6653
     20 O          15.4460   -5.7843   -4.4920 O.2         1 ACE      -0.3419
     21 CD         11.4012   -3.5382   -5.1643 C.3         1 ACE      -0.0532
     22 CG         11.8423   -3.5046   -3.6799 C.3         1 ACE      -0.0516
     23 CE         11.3719   -4.9869   -5.7175 C.3         1 ACE      -0.0516
     24 CB         13.1943   -4.2406   -3.4762 C.3         1 ACE      -0.0199
     25 CH         12.7243   -5.7227   -5.4873 C.3         1 ACE      -0.0199
     26 N          12.1686   -6.4990   -3.2651 N.am        1 ACE      -0.2738
     27 C          14.5284   -6.3207   -3.8813 C.2         1 ACE       0.2267
     28 CA         13.1749   -5.7284   -3.9783 C.3         1 ACE       0.1331
     29 N          14.7860   -7.4020   -3.1488 N.am        1 ACE      -0.2608
     30 CA         16.0275   -8.0937   -2.9417 C.3         1 ACE       0.1474
     31 C          16.9932   -7.2649   -2.2204 C.2         1 ACE       0.2017
     32 O          17.0054   -7.2486   -0.9958 O.2         1 ACE      -0.3945
     33 CB         16.5936   -8.7509   -4.2421 C.3         1 ACE       0.0774
     34 CG         15.6541   -9.6422   -4.9038 C.2         1 ACE       0.1781
     35 OD1        15.2129  -10.6195   -4.3154 O.2         1 ACE      -0.3970
     36 ND2        15.2885   -9.4613   -6.1524 N.am        1 ACE      -0.3007
     37 N          17.8475   -6.4715   -2.8283 N.am        1 ACE      -0.2988
     38 H1          9.5498   -5.8318    1.7490 H           1 ACE       0.0467
     39 H2         10.6885   -6.6181    2.8501 H           1 ACE       0.0467
     40 H3          9.1065   -7.3559    2.5299 H           1 ACE       0.0467
     41 H4         10.1068   -6.1874   -0.3441 H           1 ACE       0.1885
     42 H5         11.5650   -8.5925   -1.1802 H           1 ACE       0.0840
     43 H6          9.3060   -7.0785   -2.5493 H           1 ACE       0.0584
     44 H7          9.1404   -8.6371   -1.7596 H           1 ACE       0.0584
     45 H8         11.5556  -10.0970   -2.8644 H           1 ACE       0.0703
     46 H9          8.6624   -7.6710   -4.7574 H           1 ACE       0.0703
     47 H10        11.9642  -11.2157   -4.9416 H           1 ACE       0.0736
     48 H11         8.9938   -8.8813   -6.8003 H           1 ACE       0.0736
     49 H12        12.0883   -2.9379   -5.7646 H           1 ACE       0.0265
     50 H13        10.4052   -3.0964   -5.2538 H           1 ACE       0.0265
     51 H14        11.0749   -3.9733   -3.0596 H           1 ACE       0.0265
     52 H15        11.9438   -2.4669   -3.3573 H           1 ACE       0.0265
     53 H16        11.1487   -4.9624   -6.7872 H           1 ACE       0.0265
     54 H17        10.5629   -5.5369   -5.2270 H           1 ACE       0.0265
     55 H18        13.4617   -4.2023   -2.4166 H           1 ACE       0.0277
     56 H19        13.9638   -3.6757   -4.0126 H           1 ACE       0.0277
     57 H20        13.4788   -5.2222   -6.1031 H           1 ACE       0.0277
     58 H21        12.6334   -6.7471   -5.8560 H           1 ACE       0.0277
     59 H22        11.4852   -6.8954   -3.8193 H           1 ACE       0.1839
     60 H23        14.0301   -7.7890   -2.6864 H           1 ACE       0.1891
     61 H24        15.7785   -8.9253   -2.2747 H           1 ACE       0.0828
     62 H25        17.4819   -9.3345   -3.9885 H           1 ACE       0.0551
     63 H26        16.9099   -7.9697   -4.9378 H           1 ACE       0.0551
     64 H27        14.6804  -10.0872   -6.5784 H           1 ACE       0.1814
     65 H28        15.6316   -8.7073   -6.6584 H           1 ACE       0.1814
     66 H29        18.4563   -5.9268   -2.3144 H           1 ACE       0.1815
     67 H30        17.8711   -6.4333   -3.8000 H           1 ACE       0.1815
@<TRIPOS>BOND
     1     1     2   2
     2     1     3   1
     3     4     1  am
     4     5     4   1
     5     6     5   1
     6     5     8   1
     7     6     7   2
     8    26     6  am
     9     8     9   1
    10     9    10  ar
    11     9    11  ar
    12    10    12  ar
    13    11    13  ar
    14    12    14  ar
    15    13    14  ar
    16    14    15   1
    17    15    16   1
    18    16    17  ar
    19    16    18  ar
    20    16    19  ar
    21    27    20   2
    22    22    21   1
    23    23    21   1
    24    24    22   1
    25    25    23   1
    26    28    24   1
    27    28    25   1
    28    28    26   1
    29    27    28   1
    30    27    29  am
    31    29    30   1
    32    30    31   1
    33    30    33   1
    34    31    32   2
    35    31    37  am
    36    33    34   1
    37    34    35   2
    38    34    36  am
    39     3    38   1
    40     3    39   1
    41     3    40   1
    42     4    41   1
    43     5    42   1
    44     8    43   1
    45     8    44   1
    46    10    45   1
    47    11    46   1
    48    12    47   1
    49    13    48   1
    50    21    49   1
    51    21    50   1
    52    22    51   1
    53    22    52   1
    54    23    53   1
    55    23    54   1
    56    24    55   1
    57    24    56   1
    58    25    57   1
    59    25    58   1
    60    26    59   1
    61    29    60   1
    62    30    61   1
    63    33    62   1
    64    33    63   1
    65    36    64   1
    66    36    65   1
    67    37    66   1
    68    37    67   1
@<TRIPOS>SUBSTRUCTURE
     1  ACE      1

