@<TRIPOS>MOLECULE
3s8o_ligand_051
    67    68
SMALL
GAST_HUCK
****
This file was generated by PARSER (from files_GN.cpp)

@<TRIPOS>ATOM
      1 C           1.9414   -4.8592    3.9794 C.2         1 ACE       0.1753
      2 O           2.7273   -4.0924    3.4366 O.2         1 ACE      -0.3972
      3 CH3         0.7639   -4.2965    4.5974 C.3         1 ACE       0.0258
      4 N           2.1190   -6.1732    3.9619 N.am        1 ACE      -0.2628
      5 CA          3.1907   -6.9081    3.3407 C.3         1 ACE       0.1465
      6 C           2.7206   -7.5807    2.1255 C.2         1 ACE       0.2045
      7 O           3.2292   -8.6485    1.8117 O.2         1 ACE      -0.3944
      8 CB          3.7831   -7.8651    4.4297 C.3         1 ACE       0.0400
      9 CG          4.5238   -7.1324    5.4949 C.ar        1 ACE      -0.0004
     10 CD1         3.9883   -6.9750    6.7935 C.ar        1 ACE      -0.0239
     11 CD2         5.8080   -6.6028    5.2259 C.ar        1 ACE      -0.0239
     12 CE1         4.7177   -6.3101    7.7974 C.ar        1 ACE       0.0115
     13 CE2         6.5414   -5.9477    6.2330 C.ar        1 ACE       0.0115
     14 CZ          6.0001   -5.7972    7.5297 C.ar        1 ACE       0.1728
     15 OH          6.7723   -5.3372    8.5648 O.3         1 ACE      -0.2040
     16 P           7.1673   -3.8384    8.5033 P.3         1 ACE       0.1348
     17 O1P         8.3428   -3.6688    9.3266 O.co2       1 ACE      -0.6653
     18 O2P         7.5523   -3.4360    7.1708 O.co2       1 ACE      -0.6653
     19 O3P         6.1551   -2.9273    8.9920 O.co2       1 ACE      -0.6653
     20 O           1.7995   -5.7851   -1.7793 O.2         1 ACE      -0.3419
     21 CD         -0.9820   -9.0435    0.7763 C.3         1 ACE      -0.0532
     22 CG         -1.0010   -7.5032    0.9489 C.3         1 ACE      -0.0516
     23 CE          0.4620   -9.6045    0.7761 C.3         1 ACE      -0.0516
     24 CB         -0.0661   -6.7977   -0.0732 C.3         1 ACE      -0.0199
     25 CH          1.3467   -8.8824   -0.2744 C.3         1 ACE      -0.0199
     26 N           1.9326   -6.9400    1.2601 N.am        1 ACE      -0.2738
     27 C           2.2559   -6.6814   -1.0770 C.2         1 ACE       0.2267
     28 CA          1.4209   -7.3257   -0.0423 C.3         1 ACE       0.1331
     29 N           3.5119   -7.0718   -1.2730 N.am        1 ACE      -0.2608
     30 CA          4.4220   -6.6038   -2.2924 C.3         1 ACE       0.1474
     31 C           4.1343   -7.1927   -3.5991 C.2         1 ACE       0.2017
     32 O           4.8633   -6.9653   -4.5520 O.2         1 ACE      -0.3945
     33 CB          5.9213   -6.7807   -1.8805 C.3         1 ACE       0.0774
     34 CG          6.2981   -8.0936   -1.3822 C.2         1 ACE       0.1781
     35 OD1         6.6543   -8.9752   -2.1485 O.2         1 ACE      -0.3970
     36 ND2         6.2924   -8.3590   -0.0950 N.am        1 ACE      -0.3007
     37 N           3.0610   -7.9135   -3.8328 N.am        1 ACE      -0.2988
     38 H1          0.1523   -5.0605    5.0837 H           1 ACE       0.0467
     39 H2          0.1551   -3.7991    3.8405 H           1 ACE       0.0467
     40 H3          1.0576   -3.5640    5.3510 H           1 ACE       0.0467
     41 H4          1.4256   -6.7086    4.3807 H           1 ACE       0.1885
     42 H5          3.9833   -6.2331    3.0017 H           1 ACE       0.0840
     43 H6          4.4827   -8.5808    3.9892 H           1 ACE       0.0584
     44 H7          2.9744   -8.4613    4.8674 H           1 ACE       0.0584
     45 H8          3.0626   -7.3533    7.0189 H           1 ACE       0.0703
     46 H9          6.2216   -6.7131    4.2980 H           1 ACE       0.0703
     47 H10         4.3190   -6.2212    8.7316 H           1 ACE       0.0736
     48 H11         7.4844   -5.6005    6.0314 H           1 ACE       0.0736
     49 H12        -1.4734   -9.3101   -0.1653 H           1 ACE       0.0265
     50 H13        -1.5445   -9.5015    1.5943 H           1 ACE       0.0265
     51 H14        -0.6889   -7.2476    1.9648 H           1 ACE       0.0265
     52 H15        -2.0253   -7.1418    0.8156 H           1 ACE       0.0265
     53 H16         0.4336  -10.6776    0.5584 H           1 ACE       0.0265
     54 H17         0.8986   -9.4754    1.7714 H           1 ACE       0.0265
     55 H18        -0.0885   -5.7223    0.1347 H           1 ACE       0.0277
     56 H19        -0.4879   -6.9411   -1.0727 H           1 ACE       0.0277
     57 H20         0.9311   -9.0780   -1.2693 H           1 ACE       0.0277
     58 H21         2.3395   -9.3357   -0.2534 H           1 ACE       0.0277
     59 H22         1.6446   -6.0609    1.5564 H           1 ACE       0.1839
     60 H23         3.8459   -7.7591   -0.6784 H           1 ACE       0.1891
     61 H24         4.2712   -5.5199   -2.3785 H           1 ACE       0.0828
     62 H25         6.1460   -6.0372   -1.1069 H           1 ACE       0.0551
     63 H26         6.5764   -6.5315   -2.7247 H           1 ACE       0.0551
     64 H27         6.5771   -9.2287    0.2233 H           1 ACE       0.1814
     65 H28         6.0084   -7.6826    0.5408 H           1 ACE       0.1814
     66 H29         2.8852   -8.2330   -4.7330 H           1 ACE       0.1815
     67 H30         2.4246   -8.0940   -3.1236 H           1 ACE       0.1815
@<TRIPOS>BOND
     1     1     2   2
     2     1     3   1
     3     4     1  am
     4     5     4   1
     5     6     5   1
     6     5     8   1
     7     6     7   2
     8    26     6  am
     9     8     9   1
    10     9    10  ar
    11     9    11  ar
    12    10    12  ar
    13    11    13  ar
    14    12    14  ar
    15    13    14  ar
    16    14    15   1
    17    15    16   1
    18    16    17  ar
    19    16    18  ar
    20    16    19  ar
    21    27    20   2
    22    22    21   1
    23    23    21   1
    24    24    22   1
    25    25    23   1
    26    28    24   1
    27    28    25   1
    28    28    26   1
    29    27    28   1
    30    27    29  am
    31    29    30   1
    32    30    31   1
    33    30    33   1
    34    31    32   2
    35    31    37  am
    36    33    34   1
    37    34    35   2
    38    34    36  am
    39     3    38   1
    40     3    39   1
    41     3    40   1
    42     4    41   1
    43     5    42   1
    44     8    43   1
    45     8    44   1
    46    10    45   1
    47    11    46   1
    48    12    47   1
    49    13    48   1
    50    21    49   1
    51    21    50   1
    52    22    51   1
    53    22    52   1
    54    23    53   1
    55    23    54   1
    56    24    55   1
    57    24    56   1
    58    25    57   1
    59    25    58   1
    60    26    59   1
    61    29    60   1
    62    30    61   1
    63    33    62   1
    64    33    63   1
    65    36    64   1
    66    36    65   1
    67    37    66   1
    68    37    67   1
@<TRIPOS>SUBSTRUCTURE
     1  ACE      1

