@<TRIPOS>MOLECULE
3s8o_ligand_079
    67    68
SMALL
GAST_HUCK
****
This file was generated by PARSER (from files_GN.cpp)

@<TRIPOS>ATOM
      1 C           9.8109   -8.5659    1.7907 C.2         1 ACE       0.1753
      2 O          10.9353   -8.1128    1.6100 O.2         1 ACE      -0.3972
      3 CH3         9.4637   -8.9601    3.1380 C.3         1 ACE       0.0258
      4 N           8.9508   -8.7205    0.7920 N.am        1 ACE      -0.2628
      5 CA          9.2131   -8.4396   -0.5958 C.3         1 ACE       0.1465
      6 C           7.9653   -8.0779   -1.2822 C.2         1 ACE       0.2045
      7 O           7.6623   -8.5921   -2.3544 O.2         1 ACE      -0.3944
      8 CB         10.0159   -9.6535   -1.1894 C.3         1 ACE       0.0400
      9 CG         10.8685   -9.3558   -2.3741 C.ar        1 ACE      -0.0004
     10 CD1        10.7334  -10.0901   -3.5756 C.ar        1 ACE      -0.0239
     11 CD2        11.9210   -8.4122   -2.2748 C.ar        1 ACE      -0.0239
     12 CE1        11.6355   -9.8977   -4.6411 C.ar        1 ACE       0.0115
     13 CE2        12.7990   -8.1948   -3.3498 C.ar        1 ACE       0.0115
     14 CZ         12.6905   -8.9688   -4.5253 C.ar        1 ACE       0.1728
     15 OH         13.5509   -8.8081   -5.5787 O.3         1 ACE      -0.2040
     16 P          14.9128   -9.5462   -5.4065 P.3         1 ACE       0.1348
     17 O1P        15.8015   -8.8091   -4.5407 O.co2       1 ACE      -0.6653
     18 O2P        14.7919  -10.9008   -4.9216 O.co2       1 ACE      -0.6653
     19 O3P        15.5464   -9.6071   -6.7027 O.co2       1 ACE      -0.6653
     20 O           5.0548   -8.1258   -2.5662 O.2         1 ACE      -0.3419
     21 CD          4.6152   -3.7677   -1.5649 C.3         1 ACE      -0.0532
     22 CG          5.0661   -4.6356   -2.7650 C.3         1 ACE      -0.0516
     23 CE          4.3502   -4.6184   -0.2952 C.3         1 ACE      -0.0516
     24 CB          6.2673   -5.5527   -2.3975 C.3         1 ACE      -0.0199
     25 CH          5.5553   -5.5493    0.0213 C.3         1 ACE      -0.0199
     26 N           7.2033   -7.1288   -0.7321 N.am        1 ACE      -0.2738
     27 C           4.9442   -7.5188   -1.5051 C.2         1 ACE       0.2267
     28 CA          5.9686   -6.4951   -1.1728 C.3         1 ACE       0.1331
     29 N           3.9285   -7.8312   -0.6974 N.am        1 ACE      -0.2608
     30 CA          2.9733   -8.8993   -0.8918 C.3         1 ACE       0.1474
     31 C           2.1117   -8.7324   -2.0605 C.2         1 ACE       0.2017
     32 O           1.9496   -7.6448   -2.5939 O.2         1 ACE      -0.3945
     33 CB          2.1109   -9.0892    0.3968 C.3         1 ACE       0.0774
     34 CG          2.8573   -9.2243    1.6358 C.2         1 ACE       0.1781
     35 OD1         3.8921   -9.8713    1.6780 O.2         1 ACE      -0.3970
     36 ND2         2.4025   -8.7135    2.7575 N.am        1 ACE      -0.3007
     37 N           1.4734   -9.7594   -2.5849 N.am        1 ACE      -0.2988
     38 H1          8.4461   -9.3580    3.1969 H           1 ACE       0.0467
     39 H2          9.5353   -8.0956    3.8051 H           1 ACE       0.0467
     40 H3         10.1540   -9.7325    3.4923 H           1 ACE       0.0467
     41 H4          8.0989   -9.1289    1.0054 H           1 ACE       0.1885
     42 H5          9.8344   -7.5405   -0.6608 H           1 ACE       0.0840
     43 H6          9.3181  -10.4779   -1.3967 H           1 ACE       0.0584
     44 H7         10.7056  -10.0302   -0.4332 H           1 ACE       0.0584
     45 H8          9.9993  -10.7946   -3.6727 H           1 ACE       0.0703
     46 H9         12.0725   -7.8905   -1.4079 H           1 ACE       0.0703
     47 H10        11.5347  -10.4512   -5.4909 H           1 ACE       0.0736
     48 H11        13.5437   -7.4956   -3.2632 H           1 ACE       0.0736
     49 H12         3.7029   -3.2247   -1.8298 H           1 ACE       0.0265
     50 H13         5.3910   -3.0287   -1.3456 H           1 ACE       0.0265
     51 H14         5.3508   -3.9851   -3.5936 H           1 ACE       0.0265
     52 H15         4.2247   -5.2489   -3.0996 H           1 ACE       0.0265
     53 H16         3.4465   -5.2103   -0.4364 H           1 ACE       0.0265
     54 H17         4.1771   -3.9512    0.5540 H           1 ACE       0.0265
     55 H18         7.1278   -4.9190   -2.1726 H           1 ACE       0.0277
     56 H19         6.5345   -6.1440   -3.2768 H           1 ACE       0.0277
     57 H20         5.3274   -6.1338    0.9155 H           1 ACE       0.0277
     58 H21         6.4012   -4.8989    0.2915 H           1 ACE       0.0277
     59 H22         7.5415   -6.7895    0.1153 H           1 ACE       0.1839
     60 H23         3.8718   -7.3565    0.1481 H           1 ACE       0.1891
     61 H24         3.5535   -9.8215   -1.0403 H           1 ACE       0.0828
     62 H25         1.5012   -9.9916    0.2882 H           1 ACE       0.0551
     63 H26         1.4204   -8.2391    0.4830 H           1 ACE       0.0551
     64 H27         2.8935   -8.8377    3.5877 H           1 ACE       0.1814
     65 H28         1.5575   -8.2329    2.7699 H           1 ACE       0.1814
     66 H29         0.9119   -9.6397   -3.3683 H           1 ACE       0.1815
     67 H30         1.5703  -10.6450   -2.1984 H           1 ACE       0.1815
@<TRIPOS>BOND
     1     1     2   2
     2     1     3   1
     3     4     1  am
     4     5     4   1
     5     6     5   1
     6     5     8   1
     7     6     7   2
     8    26     6  am
     9     8     9   1
    10     9    10  ar
    11     9    11  ar
    12    10    12  ar
    13    11    13  ar
    14    12    14  ar
    15    13    14  ar
    16    14    15   1
    17    15    16   1
    18    16    17  ar
    19    16    18  ar
    20    16    19  ar
    21    27    20   2
    22    22    21   1
    23    23    21   1
    24    24    22   1
    25    25    23   1
    26    28    24   1
    27    28    25   1
    28    28    26   1
    29    27    28   1
    30    27    29  am
    31    29    30   1
    32    30    31   1
    33    30    33   1
    34    31    32   2
    35    31    37  am
    36    33    34   1
    37    34    35   2
    38    34    36  am
    39     3    38   1
    40     3    39   1
    41     3    40   1
    42     4    41   1
    43     5    42   1
    44     8    43   1
    45     8    44   1
    46    10    45   1
    47    11    46   1
    48    12    47   1
    49    13    48   1
    50    21    49   1
    51    21    50   1
    52    22    51   1
    53    22    52   1
    54    23    53   1
    55    23    54   1
    56    24    55   1
    57    24    56   1
    58    25    57   1
    59    25    58   1
    60    26    59   1
    61    29    60   1
    62    30    61   1
    63    33    62   1
    64    33    63   1
    65    36    64   1
    66    36    65   1
    67    37    66   1
    68    37    67   1
@<TRIPOS>SUBSTRUCTURE
     1  ACE      1

