@<TRIPOS>MOLECULE
3s8o_ligand_031
    67    68
SMALL
GAST_HUCK
****
This file was generated by PARSER (from files_GN.cpp)

@<TRIPOS>ATOM
      1 C          10.2313  -11.0267   -2.0467 C.2         1 ACE       0.1753
      2 O           9.1416  -10.6340   -2.4470 O.2         1 ACE      -0.3972
      3 CH3        10.3124  -12.3651   -1.5059 C.3         1 ACE       0.0258
      4 N          11.3237  -10.2679   -2.1296 N.am        1 ACE      -0.2628
      5 CA         11.4666   -8.9394   -2.6819 C.3         1 ACE       0.1465
      6 C          10.2902   -8.0909   -2.4790 C.2         1 ACE       0.2045
      7 O           9.7850   -7.4992   -3.4270 O.2         1 ACE      -0.3944
      8 CB         12.0738   -8.9795   -4.1280 C.3         1 ACE       0.0400
      9 CG         11.4589   -9.9751   -5.0538 C.ar        1 ACE      -0.0004
     10 CD1        11.8268  -11.3364   -4.9681 C.ar        1 ACE      -0.0239
     11 CD2        10.4930   -9.5951   -6.0172 C.ar        1 ACE      -0.0239
     12 CE1        11.1954  -12.3042   -5.7678 C.ar        1 ACE       0.0115
     13 CE2         9.8822  -10.5604   -6.8390 C.ar        1 ACE       0.0115
     14 CZ         10.2287  -11.9231   -6.7188 C.ar        1 ACE       0.1728
     15 OH          9.5461  -12.8788   -7.4257 O.3         1 ACE      -0.2040
     16 P          10.3518  -13.5285   -8.5831 P.3         1 ACE       0.1348
     17 O1P         9.6415  -14.7147   -9.0029 O.co2       1 ACE      -0.6653
     18 O2P        10.4646  -12.6642   -9.7344 O.co2       1 ACE      -0.6653
     19 O3P        11.6678  -13.9561   -8.1760 O.co2       1 ACE      -0.6653
     20 O           9.1403   -8.6286    1.1765 O.2         1 ACE      -0.3419
     21 CD          6.2596   -5.6053   -1.6935 C.3         1 ACE      -0.0532
     22 CG          5.9966   -7.0958   -1.3581 C.3         1 ACE      -0.0516
     23 CE          7.4168   -4.9946   -0.8639 C.3         1 ACE      -0.0516
     24 CB          7.2825   -7.9499   -1.5200 C.3         1 ACE      -0.0199
     25 CH          8.7141   -5.8482   -0.9471 C.3         1 ACE      -0.0199
     26 N           9.7565   -8.0385   -1.2603 N.am        1 ACE      -0.2738
     27 C           8.4314   -7.7552    0.6939 C.2         1 ACE       0.2267
     28 CA          8.5439   -7.4041   -0.7488 C.3         1 ACE       0.1331
     29 N           7.5494   -7.1703    1.5036 N.am        1 ACE      -0.2608
     30 CA          7.3637   -7.3259    2.9233 C.3         1 ACE       0.1474
     31 C           8.5411   -6.9237    3.6922 C.2         1 ACE       0.2017
     32 O           9.6790   -7.0997    3.2795 O.2         1 ACE      -0.3945
     33 CB          6.8070   -8.7365    3.3029 C.3         1 ACE       0.0774
     34 CG          5.9660   -8.7716    4.4921 C.2         1 ACE       0.1781
     35 OD1         6.3537   -8.2797    5.5396 O.2         1 ACE      -0.3970
     36 ND2         4.7966   -9.3758    4.5019 N.am        1 ACE      -0.3007
     37 N           8.4339   -6.3312    4.8613 N.am        1 ACE      -0.2988
     38 H1         11.3338  -12.6355   -1.2367 H           1 ACE       0.0467
     39 H2          9.9499  -13.0817   -2.2464 H           1 ACE       0.0467
     40 H3          9.6902  -12.4370   -0.6123 H           1 ACE       0.0467
     41 H4         12.1432  -10.6847   -1.8184 H           1 ACE       0.1885
     42 H5         12.2390   -8.4731   -2.0653 H           1 ACE       0.0840
     43 H6         13.1430   -9.2068   -4.0543 H           1 ACE       0.0584
     44 H7         12.0234   -7.9812   -4.5678 H           1 ACE       0.0584
     45 H8         12.5341  -11.6435   -4.2944 H           1 ACE       0.0703
     46 H9         10.2181   -8.6146   -6.1121 H           1 ACE       0.0703
     47 H10        11.4421  -13.2870   -5.6543 H           1 ACE       0.0736
     48 H11         9.1674  -10.2725   -7.5101 H           1 ACE       0.0736
     49 H12         5.3469   -5.0310   -1.5124 H           1 ACE       0.0265
     50 H13         6.4972   -5.5250   -2.7565 H           1 ACE       0.0265
     51 H14         5.2263   -7.4824   -2.0354 H           1 ACE       0.0265
     52 H15         5.6017   -7.1861   -0.3448 H           1 ACE       0.0265
     53 H16         7.1076   -4.8623    0.1730 H           1 ACE       0.0265
     54 H17         7.6325   -3.9937   -1.2501 H           1 ACE       0.0265
     55 H18         7.4763   -7.9885   -2.5904 H           1 ACE       0.0277
     56 H19         7.0704   -8.9778   -1.2106 H           1 ACE       0.0277
     57 H20         9.4378   -5.4607   -0.2209 H           1 ACE       0.0277
     58 H21         9.1367   -5.6495   -1.9344 H           1 ACE       0.0277
     59 H22        10.2737   -8.5225   -0.5939 H           1 ACE       0.1839
     60 H23         6.9457   -6.5475    1.0858 H           1 ACE       0.1891
     61 H24         6.5735   -6.6001    3.1496 H           1 ACE       0.0828
     62 H25         7.6333   -9.4436    3.4483 H           1 ACE       0.0551
     63 H26         6.2221   -9.1085    2.4547 H           1 ACE       0.0551
     64 H27         4.2819   -9.4154    5.3231 H           1 ACE       0.1814
     65 H28         4.4567   -9.8066    3.7025 H           1 ACE       0.1814
     66 H29         9.2327   -6.0680    5.3482 H           1 ACE       0.1815
     67 H30         7.5601   -6.1633    5.2488 H           1 ACE       0.1815
@<TRIPOS>BOND
     1     1     2   2
     2     1     3   1
     3     4     1  am
     4     5     4   1
     5     6     5   1
     6     5     8   1
     7     6     7   2
     8    26     6  am
     9     8     9   1
    10     9    10  ar
    11     9    11  ar
    12    10    12  ar
    13    11    13  ar
    14    12    14  ar
    15    13    14  ar
    16    14    15   1
    17    15    16   1
    18    16    17  ar
    19    16    18  ar
    20    16    19  ar
    21    27    20   2
    22    22    21   1
    23    23    21   1
    24    24    22   1
    25    25    23   1
    26    28    24   1
    27    28    25   1
    28    28    26   1
    29    27    28   1
    30    27    29  am
    31    29    30   1
    32    30    31   1
    33    30    33   1
    34    31    32   2
    35    31    37  am
    36    33    34   1
    37    34    35   2
    38    34    36  am
    39     3    38   1
    40     3    39   1
    41     3    40   1
    42     4    41   1
    43     5    42   1
    44     8    43   1
    45     8    44   1
    46    10    45   1
    47    11    46   1
    48    12    47   1
    49    13    48   1
    50    21    49   1
    51    21    50   1
    52    22    51   1
    53    22    52   1
    54    23    53   1
    55    23    54   1
    56    24    55   1
    57    24    56   1
    58    25    57   1
    59    25    58   1
    60    26    59   1
    61    29    60   1
    62    30    61   1
    63    33    62   1
    64    33    63   1
    65    36    64   1
    66    36    65   1
    67    37    66   1
    68    37    67   1
@<TRIPOS>SUBSTRUCTURE
     1  ACE      1

