@<TRIPOS>MOLECULE
3s8o_ligand_021
    67    68
SMALL
GAST_HUCK
****
This file was generated by PARSER (from files_GN.cpp)

@<TRIPOS>ATOM
      1 C          10.5733   -8.0989    0.7942 C.2         1 ACE       0.1753
      2 O          11.2326   -7.2922    0.1408 O.2         1 ACE      -0.3972
      3 CH3        10.8318   -8.1772    2.2126 C.3         1 ACE       0.0258
      4 N           9.6543   -8.8754    0.2304 N.am        1 ACE      -0.2628
      5 CA          9.2726   -8.9268   -1.1636 C.3         1 ACE       0.1465
      6 C           7.8353   -8.6391   -1.2628 C.2         1 ACE       0.2045
      7 O           7.1783   -9.0658   -2.2102 O.2         1 ACE      -0.3944
      8 CB          9.7581  -10.3034   -1.7649 C.3         1 ACE       0.0400
      9 CG         11.0722  -10.3847   -2.4773 C.ar        1 ACE      -0.0004
     10 CD1        12.0978   -9.4137   -2.3853 C.ar        1 ACE      -0.0239
     11 CD2        11.2732  -11.4762   -3.3608 C.ar        1 ACE      -0.0239
     12 CE1        13.2567   -9.5045   -3.1760 C.ar        1 ACE       0.0115
     13 CE2        12.4205  -11.5546   -4.1678 C.ar        1 ACE       0.0115
     14 CZ         13.4052  -10.5527   -4.1157 C.ar        1 ACE       0.1728
     15 OH         14.4893  -10.6660   -4.9557 O.3         1 ACE      -0.2040
     16 P          14.8103   -9.3827   -5.7907 P.3         1 ACE       0.1348
     17 O1P        15.6184   -8.4821   -4.9988 O.co2       1 ACE      -0.6653
     18 O2P        15.6118   -9.7649   -6.9251 O.co2       1 ACE      -0.6653
     19 O3P        13.6554   -8.6713   -6.2914 O.co2       1 ACE      -0.6653
     20 O           4.7947   -9.3620   -0.1823 O.2         1 ACE      -0.3419
     21 CD          3.9642   -4.9634   -0.8182 C.3         1 ACE      -0.0532
     22 CG          3.8563   -6.2925   -1.6045 C.3         1 ACE      -0.0516
     23 CE          4.6266   -5.1804    0.5644 C.3         1 ACE      -0.0516
     24 CB          5.2294   -7.0167   -1.7092 C.3         1 ACE      -0.0199
     25 CH          5.9865   -5.9268    0.4313 C.3         1 ACE      -0.0199
     26 N           7.2819   -7.7545   -0.4336 N.am        1 ACE      -0.2738
     27 C           5.1695   -8.3637    0.4200 C.2         1 ACE       0.2267
     28 CA          5.9036   -7.3149   -0.3164 C.3         1 ACE       0.1331
     29 N           5.0065   -8.3281    1.7384 N.am        1 ACE      -0.2608
     30 CA          4.3326   -9.2687    2.5908 C.3         1 ACE       0.1474
     31 C           3.1244   -8.6040    3.0498 C.2         1 ACE       0.2017
     32 O           3.1420   -7.8244    3.9932 O.2         1 ACE      -0.3945
     33 CB          5.2690   -9.7999    3.7307 C.3         1 ACE       0.0774
     34 CG          6.3777   -8.9311    4.0978 C.2         1 ACE       0.1781
     35 OD1         6.2218   -8.0286    4.9096 O.2         1 ACE      -0.3970
     36 ND2         7.5560   -9.0514    3.5251 N.am        1 ACE      -0.3007
     37 N           2.0149   -8.6595    2.3396 N.am        1 ACE      -0.2988
     38 H1         10.1339   -8.8516    2.7175 H           1 ACE       0.0467
     39 H2         10.7373   -7.1876    2.6664 H           1 ACE       0.0467
     40 H3         11.8463   -8.5465    2.3806 H           1 ACE       0.0467
     41 H4          9.1630   -9.4698    0.8275 H           1 ACE       0.1885
     42 H5          9.7412   -8.1180   -1.7371 H           1 ACE       0.0840
     43 H6          9.0136  -10.6356   -2.4906 H           1 ACE       0.0584
     44 H7          9.7695  -11.0516   -0.9714 H           1 ACE       0.0584
     45 H8         12.0217   -8.6246   -1.7415 H           1 ACE       0.0703
     46 H9         10.5640  -12.2121   -3.4456 H           1 ACE       0.0703
     47 H10        13.9902   -8.7987   -3.0886 H           1 ACE       0.0736
     48 H11        12.5229  -12.3404   -4.8212 H           1 ACE       0.0736
     49 H12         2.9659   -4.5375   -0.6822 H           1 ACE       0.0265
     50 H13         4.5558   -4.2458   -1.3957 H           1 ACE       0.0265
     51 H14         3.4775   -6.0788   -2.6093 H           1 ACE       0.0265
     52 H15         3.1325   -6.9459   -1.1099 H           1 ACE       0.0265
     53 H16         3.9479   -5.7501    1.2052 H           1 ACE       0.0265
     54 H17         4.7861   -4.2052    1.0408 H           1 ACE       0.0265
     55 H18         5.8984   -6.3952   -2.3086 H           1 ACE       0.0277
     56 H19         5.0702   -7.9367   -2.2726 H           1 ACE       0.0277
     57 H20         6.4201   -6.0432    1.4289 H           1 ACE       0.0277
     58 H21         6.6642   -5.2604   -0.1165 H           1 ACE       0.0277
     59 H22         7.8871   -7.3794    0.2295 H           1 ACE       0.1839
     60 H23         5.3652   -7.5529    2.1931 H           1 ACE       0.1891
     61 H24         4.0284  -10.1550    2.0229 H           1 ACE       0.0828
     62 H25         5.6750  -10.7686    3.4121 H           1 ACE       0.0551
     63 H26         4.6775  -10.0052    4.6285 H           1 ACE       0.0551
     64 H27         8.2759   -8.4493    3.7667 H           1 ACE       0.1814
     65 H28         7.6916   -9.7183    2.8314 H           1 ACE       0.1814
     66 H29         1.2408   -8.1440    2.6097 H           1 ACE       0.1815
     67 H30         1.9789   -9.2076    1.5385 H           1 ACE       0.1815
@<TRIPOS>BOND
     1     1     2   2
     2     1     3   1
     3     4     1  am
     4     5     4   1
     5     6     5   1
     6     5     8   1
     7     6     7   2
     8    26     6  am
     9     8     9   1
    10     9    10  ar
    11     9    11  ar
    12    10    12  ar
    13    11    13  ar
    14    12    14  ar
    15    13    14  ar
    16    14    15   1
    17    15    16   1
    18    16    17  ar
    19    16    18  ar
    20    16    19  ar
    21    27    20   2
    22    22    21   1
    23    23    21   1
    24    24    22   1
    25    25    23   1
    26    28    24   1
    27    28    25   1
    28    28    26   1
    29    27    28   1
    30    27    29  am
    31    29    30   1
    32    30    31   1
    33    30    33   1
    34    31    32   2
    35    31    37  am
    36    33    34   1
    37    34    35   2
    38    34    36  am
    39     3    38   1
    40     3    39   1
    41     3    40   1
    42     4    41   1
    43     5    42   1
    44     8    43   1
    45     8    44   1
    46    10    45   1
    47    11    46   1
    48    12    47   1
    49    13    48   1
    50    21    49   1
    51    21    50   1
    52    22    51   1
    53    22    52   1
    54    23    53   1
    55    23    54   1
    56    24    55   1
    57    24    56   1
    58    25    57   1
    59    25    58   1
    60    26    59   1
    61    29    60   1
    62    30    61   1
    63    33    62   1
    64    33    63   1
    65    36    64   1
    66    36    65   1
    67    37    66   1
    68    37    67   1
@<TRIPOS>SUBSTRUCTURE
     1  ACE      1

