@<TRIPOS>MOLECULE
3s8o_ligand_084
    67    68
SMALL
GAST_HUCK
****
This file was generated by PARSER (from files_GN.cpp)

@<TRIPOS>ATOM
      1 C           5.3540   -5.2136    3.9011 C.2         1 ACE       0.1753
      2 O           5.5032   -6.2105    4.5966 O.2         1 ACE      -0.3972
      3 CH3         5.2564   -3.9248    4.5528 C.3         1 ACE       0.0258
      4 N           5.2944   -5.2826    2.5721 N.am        1 ACE      -0.2628
      5 CA          5.3489   -6.4531    1.7334 C.3         1 ACE       0.1465
      6 C           4.0483   -7.1333    1.7438 C.2         1 ACE       0.2045
      7 O           3.6856   -7.6913    2.7745 O.2         1 ACE      -0.3944
      8 CB          6.5666   -7.3926    2.0530 C.3         1 ACE       0.0400
      9 CG          7.1893   -8.0800    0.8793 C.ar        1 ACE      -0.0004
     10 CD1         8.5973   -8.1300    0.7249 C.ar        1 ACE      -0.0239
     11 CD2         6.3835   -8.7155   -0.0934 C.ar        1 ACE      -0.0239
     12 CE1         9.1807   -8.8351   -0.3463 C.ar        1 ACE       0.0115
     13 CE2         6.9766   -9.3995   -1.1774 C.ar        1 ACE       0.0115
     14 CZ          8.3713   -9.5209   -1.2864 C.ar        1 ACE       0.1728
     15 OH          8.8781  -10.1773   -2.3783 O.3         1 ACE      -0.2040
     16 P           9.8851  -11.3254   -2.0872 P.3         1 ACE       0.1348
     17 O1P         9.6508  -12.0507   -0.8601 O.co2       1 ACE      -0.6653
     18 O2P         9.7633  -12.2745   -3.1682 O.co2       1 ACE      -0.6653
     19 O3P        11.2405  -10.8271   -2.1042 O.co2       1 ACE      -0.6653
     20 O           0.7692   -6.7368   -1.3794 O.2         1 ACE      -0.3419
     21 CD         -0.5389   -9.0651    1.5809 C.3         1 ACE      -0.0532
     22 CG         -0.5247   -7.5311    1.3479 C.3         1 ACE      -0.0516
     23 CE          0.4427   -9.8043    0.6346 C.3         1 ACE      -0.0516
     24 CB          0.9137   -6.9400    1.3891 C.3         1 ACE      -0.0199
     25 CH          1.8791   -9.2241    0.7573 C.3         1 ACE      -0.0199
     26 N           3.2704   -7.1151    0.6606 N.am        1 ACE      -0.2738
     27 C           1.6746   -7.4664   -0.9939 C.2         1 ACE       0.2267
     28 CA          1.9442   -7.6785    0.4445 C.3         1 ACE       0.1331
     29 N           2.4762   -8.0332   -1.8852 N.am        1 ACE      -0.2608
     30 CA          2.4193   -7.9651   -3.3193 C.3         1 ACE       0.1474
     31 C           2.5224   -9.3243   -3.8332 C.2         1 ACE       0.2017
     32 O           3.1994  -10.1711   -3.2523 O.2         1 ACE      -0.3945
     33 CB          3.5100   -7.0063   -3.8999 C.3         1 ACE       0.0774
     34 CG          4.6210   -6.6994   -3.0100 C.2         1 ACE       0.1781
     35 OD1         5.5625   -7.4703   -2.8586 O.2         1 ACE      -0.3970
     36 ND2         4.6016   -5.6152   -2.2593 N.am        1 ACE      -0.3007
     37 N           1.9264   -9.6979   -4.9469 N.am        1 ACE      -0.2988
     38 H1          5.0888   -3.1125    3.8333 H           1 ACE       0.0467
     39 H2          6.1829   -3.7232    5.1027 H           1 ACE       0.0467
     40 H3          4.4176   -3.9428    5.2557 H           1 ACE       0.0467
     41 H4          5.2244   -4.4375    2.0981 H           1 ACE       0.1885
     42 H5          5.5216   -6.0519    0.7334 H           1 ACE       0.0840
     43 H6          6.2635   -8.1772    2.7600 H           1 ACE       0.0584
     44 H7          7.3294   -6.8022    2.5653 H           1 ACE       0.0584
     45 H8          9.2124   -7.6752    1.4130 H           1 ACE       0.0703
     46 H9          5.3644   -8.7067   -0.0217 H           1 ACE       0.0703
     47 H10        10.1965   -8.8695   -0.4247 H           1 ACE       0.0736
     48 H11         6.3722   -9.8526   -1.8647 H           1 ACE       0.0736
     49 H12        -1.5539   -9.4351    1.4208 H           1 ACE       0.0265
     50 H13        -0.2663   -9.2711    2.6222 H           1 ACE       0.0265
     51 H14        -1.1318   -7.0416    2.1196 H           1 ACE       0.0265
     52 H15        -0.9917   -7.3084    0.3819 H           1 ACE       0.0265
     53 H16         0.0873   -9.7183   -0.3959 H           1 ACE       0.0265
     54 H17         0.4520  -10.8658    0.8942 H           1 ACE       0.0265
     55 H18         1.2473   -6.9968    2.4320 H           1 ACE       0.0277
     56 H19         0.8726   -5.8702    1.1313 H           1 ACE       0.0277
     57 H20         2.5436   -9.7822    0.0919 H           1 ACE       0.0277
     58 H21         2.2244   -9.4097    1.7750 H           1 ACE       0.0277
     59 H22         3.6486   -6.6500   -0.1048 H           1 ACE       0.1839
     60 H23         3.2316   -8.5196   -1.5224 H           1 ACE       0.1891
     61 H24         1.4437   -7.5728   -3.6335 H           1 ACE       0.0828
     62 H25         3.0028   -6.0709   -4.1790 H           1 ACE       0.0551
     63 H26         3.9182   -7.4168   -4.8296 H           1 ACE       0.0551
     64 H27         5.3329   -5.4400   -1.6471 H           1 ACE       0.1814
     65 H28         3.8559   -4.9891   -2.2981 H           1 ACE       0.1814
     66 H29         2.0135  -10.6165   -5.2675 H           1 ACE       0.1815
     67 H30         1.3980   -9.0549   -5.4587 H           1 ACE       0.1815
@<TRIPOS>BOND
     1     1     2   2
     2     1     3   1
     3     4     1  am
     4     5     4   1
     5     6     5   1
     6     5     8   1
     7     6     7   2
     8    26     6  am
     9     8     9   1
    10     9    10  ar
    11     9    11  ar
    12    10    12  ar
    13    11    13  ar
    14    12    14  ar
    15    13    14  ar
    16    14    15   1
    17    15    16   1
    18    16    17  ar
    19    16    18  ar
    20    16    19  ar
    21    27    20   2
    22    22    21   1
    23    23    21   1
    24    24    22   1
    25    25    23   1
    26    28    24   1
    27    28    25   1
    28    28    26   1
    29    27    28   1
    30    27    29  am
    31    29    30   1
    32    30    31   1
    33    30    33   1
    34    31    32   2
    35    31    37  am
    36    33    34   1
    37    34    35   2
    38    34    36  am
    39     3    38   1
    40     3    39   1
    41     3    40   1
    42     4    41   1
    43     5    42   1
    44     8    43   1
    45     8    44   1
    46    10    45   1
    47    11    46   1
    48    12    47   1
    49    13    48   1
    50    21    49   1
    51    21    50   1
    52    22    51   1
    53    22    52   1
    54    23    53   1
    55    23    54   1
    56    24    55   1
    57    24    56   1
    58    25    57   1
    59    25    58   1
    60    26    59   1
    61    29    60   1
    62    30    61   1
    63    33    62   1
    64    33    63   1
    65    36    64   1
    66    36    65   1
    67    37    66   1
    68    37    67   1
@<TRIPOS>SUBSTRUCTURE
     1  ACE      1

