@<TRIPOS>MOLECULE
3s8o_ligand_089
    67    68
SMALL
GAST_HUCK
****
This file was generated by PARSER (from files_GN.cpp)

@<TRIPOS>ATOM
      1 C          13.7041   -6.6734   -5.3036 C.2         1 ACE       0.1753
      2 O          14.7019   -7.3796   -5.2290 O.2         1 ACE      -0.3972
      3 CH3        13.8620   -5.3392   -5.8380 C.3         1 ACE       0.0258
      4 N          12.5062   -7.1029   -4.9217 N.am        1 ACE      -0.2628
      5 CA         12.1620   -8.4167   -4.4309 C.3         1 ACE       0.1465
      6 C          11.1634   -9.0491   -5.3009 C.2         1 ACE       0.2045
      7 O          10.4571   -9.9418   -4.8500 O.2         1 ACE      -0.3944
      8 CB         11.8093   -8.3066   -2.9002 C.3         1 ACE       0.0400
      9 CG         10.3619   -8.2474   -2.5430 C.ar        1 ACE      -0.0004
     10 CD1         9.7619   -9.2926   -1.8003 C.ar        1 ACE      -0.0239
     11 CD2         9.5430   -7.1912   -3.0061 C.ar        1 ACE      -0.0239
     12 CE1         8.3767   -9.3040   -1.5671 C.ar        1 ACE       0.0115
     13 CE2         8.1557   -7.1993   -2.7632 C.ar        1 ACE       0.0115
     14 CZ          7.5607   -8.2589   -2.0496 C.ar        1 ACE       0.1728
     15 OH          6.1959   -8.2977   -1.9278 O.3         1 ACE      -0.2040
     16 P           5.6234   -8.0268   -0.5014 P.3         1 ACE       0.1348
     17 O1P         4.5824   -7.0355   -0.6004 O.co2       1 ACE      -0.6653
     18 O2P         5.0187   -9.2404   -0.0182 O.co2       1 ACE      -0.6653
     19 O3P         6.5762   -7.5840    0.4857 O.co2       1 ACE      -0.6653
     20 O          11.0290  -11.3543   -7.1726 O.2         1 ACE      -0.3419
     21 CD          8.9982   -6.5234   -8.4715 C.3         1 ACE      -0.0532
     22 CG         10.4369   -6.9286   -8.8817 C.3         1 ACE      -0.0516
     23 CE          8.5390   -7.2331   -7.1728 C.3         1 ACE      -0.0516
     24 CB         10.6030   -8.4743   -8.9475 C.3         1 ACE      -0.0199
     25 CH          8.7113   -8.7748   -7.2675 C.3         1 ACE      -0.0199
     26 N          11.1014   -8.7480   -6.5974 N.am        1 ACE      -0.2738
     27 C          10.2577  -10.6730   -7.8383 C.2         1 ACE       0.2267
     28 CA         10.1794   -9.2111   -7.6237 C.3         1 ACE       0.1331
     29 N           9.5428  -11.2715   -8.7933 N.am        1 ACE      -0.2608
     30 CA          9.5445  -12.6719   -9.1491 C.3         1 ACE       0.1474
     31 C          10.8885  -13.1061   -9.5243 C.2         1 ACE       0.2017
     32 O          11.4717  -13.9633   -8.8735 O.2         1 ACE      -0.3945
     33 CB          8.4749  -12.9173  -10.2653 C.3         1 ACE       0.0774
     34 CG          8.3886  -14.2811  -10.7681 C.2         1 ACE       0.1781
     35 OD1         7.4272  -14.9920  -10.5117 O.2         1 ACE      -0.3970
     36 ND2         9.3131  -14.7647  -11.5694 N.am        1 ACE      -0.3007
     37 N          11.5162  -12.5719  -10.5486 N.am        1 ACE      -0.2988
     38 H1         12.9060   -4.8150   -5.9098 H           1 ACE       0.0467
     39 H2         14.2991   -5.3892   -6.8383 H           1 ACE       0.0467
     40 H3         14.5251   -4.7592   -5.1931 H           1 ACE       0.0467
     41 H4         11.7779   -6.4657   -4.9963 H           1 ACE       0.1885
     42 H5         13.0390   -9.0688   -4.4992 H           1 ACE       0.0840
     43 H6         12.2911   -7.4271   -2.4618 H           1 ACE       0.0584
     44 H7         12.2687   -9.1637   -2.3963 H           1 ACE       0.0584
     45 H8         10.3203  -10.0783   -1.4573 H           1 ACE       0.0703
     46 H9          9.9461   -6.4274   -3.5552 H           1 ACE       0.0703
     47 H10         7.9551  -10.0873   -1.0636 H           1 ACE       0.0736
     48 H11         7.5730   -6.4456   -3.1329 H           1 ACE       0.0736
     49 H12         8.3108   -6.7761   -9.2836 H           1 ACE       0.0265
     50 H13         8.9571   -5.4409   -8.3237 H           1 ACE       0.0265
     51 H14        11.1482   -6.5053   -8.1673 H           1 ACE       0.0265
     52 H15        10.6637   -6.4992   -9.8616 H           1 ACE       0.0265
     53 H16         7.4864   -6.9977   -6.9926 H           1 ACE       0.0265
     54 H17         9.1135   -6.8505   -6.3252 H           1 ACE       0.0265
     55 H18        11.6479   -8.7036   -9.1789 H           1 ACE       0.0277
     56 H19        10.0009   -8.8282   -9.7904 H           1 ACE       0.0277
     57 H20         8.0125   -9.1409   -8.0270 H           1 ACE       0.0277
     58 H21         8.4059   -9.2179   -6.3174 H           1 ACE       0.0277
     59 H22        11.7606   -8.1036   -6.8995 H           1 ACE       0.1839
     60 H23         8.9582  -10.6982   -9.3144 H           1 ACE       0.1891
     61 H24         9.2203  -13.2302   -8.2645 H           1 ACE       0.0828
     62 H25         8.6667  -12.2524  -11.1120 H           1 ACE       0.0551
     63 H26         7.5000  -12.6314   -9.8585 H           1 ACE       0.0551
     64 H27         9.2798  -15.6847  -11.8751 H           1 ACE       0.1814
     65 H28        10.0648  -14.2104  -11.8312 H           1 ACE       0.1814
     66 H29        12.4078  -12.8694  -10.7847 H           1 ACE       0.1815
     67 H30        11.0853  -11.8817  -11.0761 H           1 ACE       0.1815
@<TRIPOS>BOND
     1     1     2   2
     2     1     3   1
     3     4     1  am
     4     5     4   1
     5     6     5   1
     6     5     8   1
     7     6     7   2
     8    26     6  am
     9     8     9   1
    10     9    10  ar
    11     9    11  ar
    12    10    12  ar
    13    11    13  ar
    14    12    14  ar
    15    13    14  ar
    16    14    15   1
    17    15    16   1
    18    16    17  ar
    19    16    18  ar
    20    16    19  ar
    21    27    20   2
    22    22    21   1
    23    23    21   1
    24    24    22   1
    25    25    23   1
    26    28    24   1
    27    28    25   1
    28    28    26   1
    29    27    28   1
    30    27    29  am
    31    29    30   1
    32    30    31   1
    33    30    33   1
    34    31    32   2
    35    31    37  am
    36    33    34   1
    37    34    35   2
    38    34    36  am
    39     3    38   1
    40     3    39   1
    41     3    40   1
    42     4    41   1
    43     5    42   1
    44     8    43   1
    45     8    44   1
    46    10    45   1
    47    11    46   1
    48    12    47   1
    49    13    48   1
    50    21    49   1
    51    21    50   1
    52    22    51   1
    53    22    52   1
    54    23    53   1
    55    23    54   1
    56    24    55   1
    57    24    56   1
    58    25    57   1
    59    25    58   1
    60    26    59   1
    61    29    60   1
    62    30    61   1
    63    33    62   1
    64    33    63   1
    65    36    64   1
    66    36    65   1
    67    37    66   1
    68    37    67   1
@<TRIPOS>SUBSTRUCTURE
     1  ACE      1

