@<TRIPOS>MOLECULE
3s8o_ligand_060
    67    68
SMALL
GAST_HUCK
****
This file was generated by PARSER (from files_GN.cpp)

@<TRIPOS>ATOM
      1 C          13.2707   -5.9961   -3.1647 C.2         1 ACE       0.1753
      2 O          12.1908   -5.7486   -3.6906 O.2         1 ACE      -0.3972
      3 CH3        14.0646   -4.8962   -2.6809 C.3         1 ACE       0.0258
      4 N          13.7058   -7.2456   -3.0212 N.am        1 ACE      -0.2628
      5 CA         13.0119   -8.4521   -3.3799 C.3         1 ACE       0.1465
      6 C          13.7910   -9.5613   -2.8131 C.2         1 ACE       0.2045
      7 O          13.1839  -10.4545   -2.2093 O.2         1 ACE      -0.3944
      8 CB         12.7817   -8.5233   -4.9320 C.3         1 ACE       0.0400
      9 CG         11.8864   -9.6152   -5.4384 C.ar        1 ACE      -0.0004
     10 CD1        12.1466  -10.9623   -5.1129 C.ar        1 ACE      -0.0239
     11 CD2        10.8153   -9.3476   -6.3223 C.ar        1 ACE      -0.0239
     12 CE1        11.3882  -12.0133   -5.6645 C.ar        1 ACE       0.0115
     13 CE2        10.0617  -10.3950   -6.8923 C.ar        1 ACE       0.0115
     14 CZ         10.3722  -11.7380   -6.5983 C.ar        1 ACE       0.1728
     15 OH          9.6488  -12.7689   -7.1430 O.3         1 ACE      -0.2040
     16 P          10.3400  -13.4426   -8.3672 P.3         1 ACE       0.1348
     17 O1P        11.6616  -13.9346   -8.0729 O.co2       1 ACE      -0.6653
     18 O2P         9.5664  -14.5907   -8.7702 O.co2       1 ACE      -0.6653
     19 O3P        10.4150  -12.5573   -9.5030 O.co2       1 ACE      -0.6653
     20 O          17.7866   -8.9198   -3.2907 O.2         1 ACE      -0.3419
     21 CD         15.4684  -13.4388   -2.3797 C.3         1 ACE      -0.0532
     22 CG         15.6527  -12.6688   -3.7097 C.3         1 ACE      -0.0516
     23 CE         15.0263  -12.4950   -1.2348 C.3         1 ACE      -0.0516
     24 CB         16.6016  -11.4536   -3.5611 C.3         1 ACE      -0.0199
     25 CH         15.9352  -11.2377   -1.1245 C.3         1 ACE      -0.0199
     26 N          15.1094   -9.6026   -2.9814 N.am        1 ACE      -0.2738
     27 C          17.3240   -9.4640   -2.2862 C.2         1 ACE       0.2267
     28 CA         16.1983  -10.4185   -2.4476 C.3         1 ACE       0.1331
     29 N          17.9197   -9.2051   -1.1179 N.am        1 ACE      -0.2608
     30 CA         19.0827   -8.3979   -0.8525 C.3         1 ACE       0.1474
     31 C          20.2076   -8.5966   -1.7638 C.2         1 ACE       0.2017
     32 O          20.9335   -7.6491   -2.0491 O.2         1 ACE      -0.3945
     33 CB         19.5354   -8.5448    0.6392 C.3         1 ACE       0.0774
     34 CG         19.6443   -9.8696    1.2432 C.2         1 ACE       0.1781
     35 OD1        19.8965   -9.9468    2.4392 O.2         1 ACE      -0.3970
     36 ND2        19.4532  -11.0109    0.6261 N.am        1 ACE      -0.3007
     37 N          20.5062   -9.7449   -2.3183 N.am        1 ACE      -0.2988
     38 H1         15.0109   -5.2395   -2.2550 H           1 ACE       0.0467
     39 H2         13.5161   -4.3547   -1.9066 H           1 ACE       0.0467
     40 H3         14.2849   -4.2130   -3.5021 H           1 ACE       0.0467
     41 H4         14.5707   -7.3475   -2.6036 H           1 ACE       0.1885
     42 H5         12.0231   -8.4363   -2.9064 H           1 ACE       0.0840
     43 H6         13.7479   -8.6317   -5.4319 H           1 ACE       0.0584
     44 H7         12.3797   -7.5592   -5.2538 H           1 ACE       0.0584
     45 H8         12.8933  -11.2011   -4.4736 H           1 ACE       0.0703
     46 H9         10.5905   -8.3891   -6.5877 H           1 ACE       0.0703
     47 H10        11.6097  -12.9787   -5.4153 H           1 ACE       0.0736
     48 H11         9.2956  -10.1816   -7.5339 H           1 ACE       0.0736
     49 H12        16.4039  -13.9287   -2.1033 H           1 ACE       0.0265
     50 H13        14.7086  -14.2145   -2.5138 H           1 ACE       0.0265
     51 H14        14.6797  -12.3297   -4.0613 H           1 ACE       0.0265
     52 H15        16.0547  -13.3565   -4.4543 H           1 ACE       0.0265
     53 H16        15.0852  -13.0406   -0.2816 H           1 ACE       0.0265
     54 H17        13.9795  -12.2156   -1.3886 H           1 ACE       0.0265
     55 H18        16.6490  -10.9470   -4.5282 H           1 ACE       0.0277
     56 H19        17.6042  -11.8451   -3.3555 H           1 ACE       0.0277
     57 H20        16.8929  -11.6225   -0.7516 H           1 ACE       0.0277
     58 H21        15.5448  -10.5724   -0.3570 H           1 ACE       0.0277
     59 H22        15.4453   -8.8855   -3.5599 H           1 ACE       0.1839
     60 H23        17.5158   -9.6069   -0.3335 H           1 ACE       0.1891
     61 H24        18.7489   -7.3626   -0.9755 H           1 ACE       0.0828
     62 H25        18.8164   -7.9856    1.2432 H           1 ACE       0.0551
     63 H26        20.4991   -8.0462    0.7594 H           1 ACE       0.0551
     64 H27        19.5112  -11.8407    1.1277 H           1 ACE       0.1814
     65 H28        19.2348  -11.0505   -0.3156 H           1 ACE       0.1814
     66 H29        21.2618   -9.8086   -2.9293 H           1 ACE       0.1815
     67 H30        19.9592  -10.5302   -2.1573 H           1 ACE       0.1815
@<TRIPOS>BOND
     1     1     2   2
     2     1     3   1
     3     4     1  am
     4     5     4   1
     5     6     5   1
     6     5     8   1
     7     6     7   2
     8    26     6  am
     9     8     9   1
    10     9    10  ar
    11     9    11  ar
    12    10    12  ar
    13    11    13  ar
    14    12    14  ar
    15    13    14  ar
    16    14    15   1
    17    15    16   1
    18    16    17  ar
    19    16    18  ar
    20    16    19  ar
    21    27    20   2
    22    22    21   1
    23    23    21   1
    24    24    22   1
    25    25    23   1
    26    28    24   1
    27    28    25   1
    28    28    26   1
    29    27    28   1
    30    27    29  am
    31    29    30   1
    32    30    31   1
    33    30    33   1
    34    31    32   2
    35    31    37  am
    36    33    34   1
    37    34    35   2
    38    34    36  am
    39     3    38   1
    40     3    39   1
    41     3    40   1
    42     4    41   1
    43     5    42   1
    44     8    43   1
    45     8    44   1
    46    10    45   1
    47    11    46   1
    48    12    47   1
    49    13    48   1
    50    21    49   1
    51    21    50   1
    52    22    51   1
    53    22    52   1
    54    23    53   1
    55    23    54   1
    56    24    55   1
    57    24    56   1
    58    25    57   1
    59    25    58   1
    60    26    59   1
    61    29    60   1
    62    30    61   1
    63    33    62   1
    64    33    63   1
    65    36    64   1
    66    36    65   1
    67    37    66   1
    68    37    67   1
@<TRIPOS>SUBSTRUCTURE
     1  ACE      1

