@<TRIPOS>MOLECULE
3s8o_ligand_072
    67    68
SMALL
GAST_HUCK
****
This file was generated by PARSER (from files_GN.cpp)

@<TRIPOS>ATOM
      1 C           5.5637   -8.6445   -1.5023 C.2         1 ACE       0.1753
      2 O           6.4914   -8.9803   -2.2319 O.2         1 ACE      -0.3972
      3 CH3         4.2398   -9.1262   -1.8280 C.3         1 ACE       0.0258
      4 N           5.7405   -7.7658   -0.5260 N.am        1 ACE      -0.2628
      5 CA          6.9781   -7.0985   -0.1693 C.3         1 ACE       0.1465
      6 C           6.9566   -6.8480    1.2733 C.2         1 ACE       0.2045
      7 O           7.1530   -5.7343    1.7345 O.2         1 ACE      -0.3944
      8 CB          7.2512   -5.8548   -1.1010 C.3         1 ACE       0.0400
      9 CG          6.3961   -5.7392   -2.3154 C.ar        1 ACE      -0.0004
     10 CD1         6.7463   -6.3910   -3.5227 C.ar        1 ACE      -0.0239
     11 CD2         5.1838   -5.0014   -2.2690 C.ar        1 ACE      -0.0239
     12 CE1         5.8879   -6.3529   -4.6381 C.ar        1 ACE       0.0115
     13 CE2         4.3274   -4.9564   -3.3861 C.ar        1 ACE       0.0115
     14 CZ          4.6536   -5.6590   -4.5699 C.ar        1 ACE       0.1728
     15 OH          3.8524   -5.5690   -5.6857 O.3         1 ACE      -0.2040
     16 P           2.7533   -6.6803   -5.7445 P.3         1 ACE       0.1348
     17 O1P         2.1117   -6.5634   -7.0345 O.co2       1 ACE      -0.6653
     18 O2P         3.3047   -8.0120   -5.6636 O.co2       1 ACE      -0.6653
     19 O3P         1.7368   -6.5018   -4.7409 O.co2       1 ACE      -0.6653
     20 O           7.8858   -6.5984    4.9116 O.2         1 ACE      -0.3419
     21 CD          3.5519   -8.7138    3.6183 C.3         1 ACE      -0.0532
     22 CG          4.6573   -9.7248    3.2242 C.3         1 ACE      -0.0516
     23 CE          3.9729   -7.2597    3.2800 C.3         1 ACE      -0.0516
     24 CB          6.0227   -9.3505    3.8705 C.3         1 ACE      -0.0199
     25 CH          5.3374   -6.9151    3.9264 C.3         1 ACE      -0.0199
     26 N           6.7415   -7.8821    2.0875 N.am        1 ACE      -0.2738
     27 C           7.7681   -7.6212    4.2177 C.2         1 ACE       0.2267
     28 CA          6.5115   -7.8974    3.5103 C.3         1 ACE       0.1331
     29 N           8.8392   -8.4276    4.0868 N.am        1 ACE      -0.2608
     30 CA         10.0589   -8.3682    4.8494 C.3         1 ACE       0.1474
     31 C          10.7502   -7.0913    4.6375 C.2         1 ACE       0.2017
     32 O          11.0197   -6.3740    5.5953 O.2         1 ACE      -0.3945
     33 CB         10.9429   -9.6566    4.6246 C.3         1 ACE       0.0774
     34 CG         12.2439   -9.4893    4.0066 C.2         1 ACE       0.1781
     35 OD1        12.3263   -9.1464    2.8342 O.2         1 ACE      -0.3970
     36 ND2        13.3676   -9.6691    4.6679 N.am        1 ACE      -0.3007
     37 N          11.0146   -6.6362    3.4414 N.am        1 ACE      -0.2988
     38 H1          3.5089   -8.8113   -1.0824 H           1 ACE       0.0467
     39 H2          4.2421  -10.2137   -1.8698 H           1 ACE       0.0467
     40 H3          3.9408   -8.7338   -2.8002 H           1 ACE       0.0467
     41 H4          4.9463   -7.4952   -0.0302 H           1 ACE       0.1885
     42 H5          7.8039   -7.7969   -0.3325 H           1 ACE       0.0840
     43 H6          8.3047   -5.8844   -1.4135 H           1 ACE       0.0584
     44 H7          7.1564   -4.9135   -0.5429 H           1 ACE       0.0584
     45 H8          7.6184   -6.9123   -3.5883 H           1 ACE       0.0703
     46 H9          4.9036   -4.5205   -1.4169 H           1 ACE       0.0703
     47 H10         6.1538   -6.8233   -5.5002 H           1 ACE       0.0736
     48 H11         3.4586   -4.4217   -3.3370 H           1 ACE       0.0736
     49 H12         3.3507   -8.7977    4.6955 H           1 ACE       0.0265
     50 H13         2.6287   -8.9607    3.0819 H           1 ACE       0.0265
     51 H14         4.7527   -9.7551    2.1374 H           1 ACE       0.0265
     52 H15         4.3775  -10.7246    3.5612 H           1 ACE       0.0265
     53 H16         3.2096   -6.5733    3.6503 H           1 ACE       0.0265
     54 H17         4.0413   -7.1454    2.1970 H           1 ACE       0.0265
     55 H18         6.7558  -10.0873    3.5352 H           1 ACE       0.0277
     56 H19         5.9300   -9.4384    4.9552 H           1 ACE       0.0277
     57 H20         5.2160   -6.9423    5.0184 H           1 ACE       0.0277
     58 H21         5.5886   -5.8803    3.6708 H           1 ACE       0.0277
     59 H22         6.6751   -8.7445    1.6457 H           1 ACE       0.1839
     60 H23         8.7277   -9.1778    3.4684 H           1 ACE       0.1891
     61 H24         9.7387   -8.4093    5.8965 H           1 ACE       0.0828
     62 H25        10.3952  -10.3941    4.0310 H           1 ACE       0.0551
     63 H26        11.0877  -10.1268    5.6064 H           1 ACE       0.0551
     64 H27        14.2149   -9.5440    4.2272 H           1 ACE       0.1814
     65 H28        13.3505   -9.9326    5.6027 H           1 ACE       0.1814
     66 H29        11.4411   -5.7643    3.3280 H           1 ACE       0.1815
     67 H30        10.7777   -7.1439    2.6506 H           1 ACE       0.1815
@<TRIPOS>BOND
     1     1     2   2
     2     1     3   1
     3     4     1  am
     4     5     4   1
     5     6     5   1
     6     5     8   1
     7     6     7   2
     8    26     6  am
     9     8     9   1
    10     9    10  ar
    11     9    11  ar
    12    10    12  ar
    13    11    13  ar
    14    12    14  ar
    15    13    14  ar
    16    14    15   1
    17    15    16   1
    18    16    17  ar
    19    16    18  ar
    20    16    19  ar
    21    27    20   2
    22    22    21   1
    23    23    21   1
    24    24    22   1
    25    25    23   1
    26    28    24   1
    27    28    25   1
    28    28    26   1
    29    27    28   1
    30    27    29  am
    31    29    30   1
    32    30    31   1
    33    30    33   1
    34    31    32   2
    35    31    37  am
    36    33    34   1
    37    34    35   2
    38    34    36  am
    39     3    38   1
    40     3    39   1
    41     3    40   1
    42     4    41   1
    43     5    42   1
    44     8    43   1
    45     8    44   1
    46    10    45   1
    47    11    46   1
    48    12    47   1
    49    13    48   1
    50    21    49   1
    51    21    50   1
    52    22    51   1
    53    22    52   1
    54    23    53   1
    55    23    54   1
    56    24    55   1
    57    24    56   1
    58    25    57   1
    59    25    58   1
    60    26    59   1
    61    29    60   1
    62    30    61   1
    63    33    62   1
    64    33    63   1
    65    36    64   1
    66    36    65   1
    67    37    66   1
    68    37    67   1
@<TRIPOS>SUBSTRUCTURE
     1  ACE      1

