@<TRIPOS>MOLECULE
3s8o_ligand_078
    67    68
SMALL
GAST_HUCK
****
This file was generated by PARSER (from files_GN.cpp)

@<TRIPOS>ATOM
      1 C          10.8567   -8.8043    4.5488 C.2         1 ACE       0.1753
      2 O          11.0409   -9.5961    3.6294 O.2         1 ACE      -0.3972
      3 CH3        10.8348   -9.3403    5.8951 C.3         1 ACE       0.0258
      4 N          10.6498   -7.5125    4.3636 N.am        1 ACE      -0.2628
      5 CA         10.5762   -6.7104    3.1644 C.3         1 ACE       0.1465
      6 C           9.1986   -6.3698    2.8323 C.2         1 ACE       0.2045
      7 O           8.9721   -5.3442    2.1925 O.2         1 ACE      -0.3944
      8 CB         11.4713   -7.1034    1.9331 C.3         1 ACE       0.0400
      9 CG         10.9023   -7.7781    0.7206 C.ar        1 ACE      -0.0004
     10 CD1         9.9837   -8.8494    0.8112 C.ar        1 ACE      -0.0239
     11 CD2        11.3669   -7.4251   -0.5738 C.ar        1 ACE      -0.0239
     12 CE1         9.5540   -9.5420   -0.3341 C.ar        1 ACE       0.0115
     13 CE2        10.9371   -8.1169   -1.7225 C.ar        1 ACE       0.0115
     14 CZ         10.0530   -9.2064   -1.6061 C.ar        1 ACE       0.1728
     15 OH          9.6378   -9.9361   -2.6879 O.3         1 ACE      -0.2040
     16 P          10.5770  -11.1231   -3.0486 P.3         1 ACE       0.1348
     17 O1P         9.7830  -12.1497   -3.6823 O.co2       1 ACE      -0.6653
     18 O2P        11.5761  -10.7249   -4.0144 O.co2       1 ACE      -0.6653
     19 O3P        11.2259  -11.7518   -1.9210 O.co2       1 ACE      -0.6653
     20 O           4.9717   -5.8478    3.6234 O.2         1 ACE      -0.3419
     21 CD          4.7745   -8.5815    1.0936 C.3         1 ACE      -0.0532
     22 CG          4.8457   -8.8757    2.6100 C.3         1 ACE      -0.0516
     23 CE          5.1672   -7.1156    0.7893 C.3         1 ACE      -0.0516
     24 CB          6.2578   -8.5631    3.1666 C.3         1 ACE      -0.0199
     25 CH          6.5677   -6.7609    1.3583 C.3         1 ACE      -0.0199
     26 N           8.2100   -7.1959    3.1556 N.am        1 ACE      -0.2738
     27 C           6.1444   -6.1545    3.8093 C.2         1 ACE       0.2267
     28 CA          6.7888   -7.1081    2.8831 C.3         1 ACE       0.1331
     29 N           6.7554   -5.7068    4.9037 N.am        1 ACE      -0.2608
     30 CA          6.1991   -4.8362    5.9093 C.3         1 ACE       0.1474
     31 C           7.2824   -4.3034    6.7296 C.2         1 ACE       0.2017
     32 O           7.2741   -4.3393    7.9510 O.2         1 ACE      -0.3945
     33 CB          5.0352   -5.5267    6.6941 C.3         1 ACE       0.0774
     34 CG          5.3673   -6.7836    7.3439 C.2         1 ACE       0.1781
     35 OD1         5.8939   -6.7907    8.4466 O.2         1 ACE      -0.3970
     36 ND2         5.0578   -7.9424    6.8054 N.am        1 ACE      -0.3007
     37 N           8.3009   -3.6970    6.1582 N.am        1 ACE      -0.2988
     38 H1         10.7215   -8.5507    6.6427 H           1 ACE       0.0467
     39 H2         11.7657   -9.8677    6.1000 H           1 ACE       0.0467
     40 H3         10.0034  -10.0368    6.0097 H           1 ACE       0.0467
     41 H4         10.4946   -7.0140    5.1816 H           1 ACE       0.1885
     42 H5         11.0161   -5.7774    3.5365 H           1 ACE       0.0840
     43 H6         12.2850   -7.7350    2.2852 H           1 ACE       0.0584
     44 H7         11.9586   -6.1806    1.5982 H           1 ACE       0.0584
     45 H8          9.6180   -9.1472    1.7146 H           1 ACE       0.0703
     46 H9         12.0559   -6.6772   -0.6895 H           1 ACE       0.0703
     47 H10         8.9045  -10.3237   -0.2393 H           1 ACE       0.0736
     48 H11        11.3017   -7.8508   -2.6407 H           1 ACE       0.0736
     49 H12         3.7605   -8.7739    0.7304 H           1 ACE       0.0265
     50 H13         5.4580   -9.2514    0.5559 H           1 ACE       0.0265
     51 H14         4.6233   -9.9327    2.7796 H           1 ACE       0.0265
     52 H15         4.0920   -8.2854    3.1373 H           1 ACE       0.0265
     53 H16         4.4059   -6.4490    1.2059 H           1 ACE       0.0265
     54 H17         5.1682   -6.9659   -0.2949 H           1 ACE       0.0265
     55 H18         6.9383   -9.2873    2.7091 H           1 ACE       0.0277
     56 H19         6.2689   -8.7646    4.2414 H           1 ACE       0.0277
     57 H20         6.7333   -5.6951    1.1885 H           1 ACE       0.0277
     58 H21         7.3046   -7.2987    0.7600 H           1 ACE       0.0277
     59 H22         8.4891   -7.9905    3.6437 H           1 ACE       0.1839
     60 H23         7.6761   -5.9832    5.0408 H           1 ACE       0.1891
     61 H24         5.7623   -3.9673    5.4078 H           1 ACE       0.0828
     62 H25         4.2097   -5.7045    5.9990 H           1 ACE       0.0551
     63 H26         4.6537   -4.8292    7.4441 H           1 ACE       0.0551
     64 H27         5.2644   -8.7684    7.2732 H           1 ACE       0.1814
     65 H28         4.6164   -7.9780    5.9423 H           1 ACE       0.1814
     66 H29         9.0060   -3.3067    6.6985 H           1 ACE       0.1815
     67 H30         8.3434   -3.6306    5.1921 H           1 ACE       0.1815
@<TRIPOS>BOND
     1     1     2   2
     2     1     3   1
     3     4     1  am
     4     5     4   1
     5     6     5   1
     6     5     8   1
     7     6     7   2
     8    26     6  am
     9     8     9   1
    10     9    10  ar
    11     9    11  ar
    12    10    12  ar
    13    11    13  ar
    14    12    14  ar
    15    13    14  ar
    16    14    15   1
    17    15    16   1
    18    16    17  ar
    19    16    18  ar
    20    16    19  ar
    21    27    20   2
    22    22    21   1
    23    23    21   1
    24    24    22   1
    25    25    23   1
    26    28    24   1
    27    28    25   1
    28    28    26   1
    29    27    28   1
    30    27    29  am
    31    29    30   1
    32    30    31   1
    33    30    33   1
    34    31    32   2
    35    31    37  am
    36    33    34   1
    37    34    35   2
    38    34    36  am
    39     3    38   1
    40     3    39   1
    41     3    40   1
    42     4    41   1
    43     5    42   1
    44     8    43   1
    45     8    44   1
    46    10    45   1
    47    11    46   1
    48    12    47   1
    49    13    48   1
    50    21    49   1
    51    21    50   1
    52    22    51   1
    53    22    52   1
    54    23    53   1
    55    23    54   1
    56    24    55   1
    57    24    56   1
    58    25    57   1
    59    25    58   1
    60    26    59   1
    61    29    60   1
    62    30    61   1
    63    33    62   1
    64    33    63   1
    65    36    64   1
    66    36    65   1
    67    37    66   1
    68    37    67   1
@<TRIPOS>SUBSTRUCTURE
     1  ACE      1

