@<TRIPOS>MOLECULE
3s8o_ligand_083
    67    68
SMALL
GAST_HUCK
****
This file was generated by PARSER (from files_GN.cpp)

@<TRIPOS>ATOM
      1 C           4.4297   -8.4472    1.2633 C.2         1 ACE       0.1753
      2 O           3.5541   -7.6387    0.9816 O.2         1 ACE      -0.3972
      3 CH3         4.3183   -9.1715    2.5038 C.3         1 ACE       0.0258
      4 N           5.4625   -8.6717    0.4643 N.am        1 ACE      -0.2628
      5 CA          5.7356   -8.0518   -0.8027 C.3         1 ACE       0.1465
      6 C           7.0399   -8.5337   -1.2620 C.2         1 ACE       0.2045
      7 O           7.1140   -9.0757   -2.3546 O.2         1 ACE      -0.3944
      8 CB          5.6923   -6.4825   -0.7537 C.3         1 ACE       0.0400
      9 CG          4.4660   -5.8889   -1.3637 C.ar        1 ACE      -0.0004
     10 CD1         4.2088   -6.0582   -2.7435 C.ar        1 ACE      -0.0239
     11 CD2         3.5528   -5.1262   -0.5972 C.ar        1 ACE      -0.0239
     12 CE1         3.0565   -5.5059   -3.3366 C.ar        1 ACE       0.0115
     13 CE2         2.3982   -4.5785   -1.1883 C.ar        1 ACE       0.0115
     14 CZ          2.1305   -4.7832   -2.5556 C.ar        1 ACE       0.1728
     15 OH          1.0455   -4.1892   -3.1460 O.3         1 ACE      -0.2040
     16 P          -0.2316   -5.0789   -3.1889 P.3         1 ACE       0.1348
     17 O1P        -0.7491   -5.3678   -1.8696 O.co2       1 ACE      -0.6653
     18 O2P        -1.2498   -4.3344   -3.8798 O.co2       1 ACE      -0.6653
     19 O3P        -0.0377   -6.3078   -3.9205 O.co2       1 ACE      -0.6653
     20 O          11.1837   -7.6695    0.5647 O.2         1 ACE      -0.3419
     21 CD         11.4296  -10.1020   -2.6173 C.3         1 ACE      -0.0532
     22 CG         11.4248   -8.5622   -2.4470 C.3         1 ACE      -0.0516
     23 CE         11.0149  -10.8134   -1.3107 C.3         1 ACE      -0.0516
     24 CB         10.0451   -8.0510   -1.9507 C.3         1 ACE      -0.0199
     25 CH          9.6183  -10.3372   -0.8268 C.3         1 ACE      -0.0199
     26 N           8.1087   -8.3573   -0.4916 N.am        1 ACE      -0.2738
     27 C          10.1675   -8.3600    0.5860 C.2         1 ACE       0.2267
     28 CA          9.4923   -8.7791   -0.6637 C.3         1 ACE       0.1331
     29 N           9.6447   -8.7082    1.7627 N.am        1 ACE      -0.2608
     30 CA          9.8659   -8.2367    3.1137 C.3         1 ACE       0.1474
     31 C          10.3494   -6.8652    3.3184 C.2         1 ACE       0.2017
     32 O          10.1506   -5.9921    2.4792 O.2         1 ACE      -0.3945
     33 CB         10.5538   -9.3400    3.9818 C.3         1 ACE       0.0774
     34 CG         12.0021   -9.3033    4.1056 C.2         1 ACE       0.1781
     35 OD1        12.7034   -8.8569    3.2046 O.2         1 ACE      -0.3970
     36 ND2        12.6095   -9.7742    5.1787 N.am        1 ACE      -0.3007
     37 N          10.7653   -6.4429    4.4898 N.am        1 ACE      -0.2988
     38 H1          5.0900   -9.9400    2.5934 H           1 ACE       0.0467
     39 H2          3.3423   -9.6565    2.5615 H           1 ACE       0.0467
     40 H3          4.4194   -8.4782    3.3401 H           1 ACE       0.0467
     41 H4          6.0992   -9.3348    0.7722 H           1 ACE       0.1885
     42 H5          4.9731   -8.4248   -1.4943 H           1 ACE       0.0840
     43 H6          6.5446   -6.0401   -1.2797 H           1 ACE       0.0584
     44 H7          5.7936   -6.1599    0.2866 H           1 ACE       0.0584
     45 H8          4.8595   -6.5860   -3.3311 H           1 ACE       0.0703
     46 H9          3.7198   -4.9667    0.3989 H           1 ACE       0.0703
     47 H10         2.8934   -5.6298   -4.3379 H           1 ACE       0.0736
     48 H11         1.7527   -4.0269   -0.6174 H           1 ACE       0.0736
     49 H12        12.4318  -10.4362   -2.9045 H           1 ACE       0.0265
     50 H13        10.7394  -10.3851   -3.4193 H           1 ACE       0.0265
     51 H14        11.6591   -8.1017   -3.4094 H           1 ACE       0.0265
     52 H15        12.2120   -8.2759   -1.7485 H           1 ACE       0.0265
     53 H16        11.7492  -10.6149   -0.5304 H           1 ACE       0.0265
     54 H17        10.9857  -11.8957   -1.4731 H           1 ACE       0.0265
     55 H18         9.3512   -8.1821   -2.7840 H           1 ACE       0.0277
     56 H19        10.1167   -6.9743   -1.7727 H           1 ACE       0.0277
     57 H20         9.3857  -10.8407    0.1132 H           1 ACE       0.0277
     58 H21         8.8960  -10.6998   -1.5601 H           1 ACE       0.0277
     59 H22         7.9208   -7.8873    0.3373 H           1 ACE       0.1839
     60 H23         8.8967   -9.3236    1.6959 H           1 ACE       0.1891
     61 H24         8.8463   -8.1826    3.5018 H           1 ACE       0.0828
     62 H25        10.2818  -10.3262    3.5922 H           1 ACE       0.0551
     63 H26        10.1272   -9.2900    4.9919 H           1 ACE       0.0551
     64 H27        13.5754   -9.7446    5.2443 H           1 ACE       0.1814
     65 H28        12.0892  -10.1519    5.9084 H           1 ACE       0.1814
     66 H29        10.9589   -5.4976    4.6206 H           1 ACE       0.1815
     67 H30        10.8737   -7.0620    5.2296 H           1 ACE       0.1815
@<TRIPOS>BOND
     1     1     2   2
     2     1     3   1
     3     4     1  am
     4     5     4   1
     5     6     5   1
     6     5     8   1
     7     6     7   2
     8    26     6  am
     9     8     9   1
    10     9    10  ar
    11     9    11  ar
    12    10    12  ar
    13    11    13  ar
    14    12    14  ar
    15    13    14  ar
    16    14    15   1
    17    15    16   1
    18    16    17  ar
    19    16    18  ar
    20    16    19  ar
    21    27    20   2
    22    22    21   1
    23    23    21   1
    24    24    22   1
    25    25    23   1
    26    28    24   1
    27    28    25   1
    28    28    26   1
    29    27    28   1
    30    27    29  am
    31    29    30   1
    32    30    31   1
    33    30    33   1
    34    31    32   2
    35    31    37  am
    36    33    34   1
    37    34    35   2
    38    34    36  am
    39     3    38   1
    40     3    39   1
    41     3    40   1
    42     4    41   1
    43     5    42   1
    44     8    43   1
    45     8    44   1
    46    10    45   1
    47    11    46   1
    48    12    47   1
    49    13    48   1
    50    21    49   1
    51    21    50   1
    52    22    51   1
    53    22    52   1
    54    23    53   1
    55    23    54   1
    56    24    55   1
    57    24    56   1
    58    25    57   1
    59    25    58   1
    60    26    59   1
    61    29    60   1
    62    30    61   1
    63    33    62   1
    64    33    63   1
    65    36    64   1
    66    36    65   1
    67    37    66   1
    68    37    67   1
@<TRIPOS>SUBSTRUCTURE
     1  ACE      1

