@<TRIPOS>MOLECULE
3s8o_ligand_022
    67    68
SMALL
GAST_HUCK
****
This file was generated by PARSER (from files_GN.cpp)

@<TRIPOS>ATOM
      1 C           8.2284   -7.7601    2.8442 C.2         1 ACE       0.1753
      2 O           8.8169   -6.7682    3.2540 O.2         1 ACE      -0.3972
      3 CH3         7.5095   -8.5589    3.8086 C.3         1 ACE       0.0258
      4 N           8.2650   -8.1201    1.5638 N.am        1 ACE      -0.2628
      5 CA          8.9153   -7.4194    0.4914 C.3         1 ACE       0.1465
      6 C           7.9415   -7.2777   -0.5959 C.2         1 ACE       0.2045
      7 O           7.8399   -8.1851   -1.4082 O.2         1 ACE      -0.3944
      8 CB         10.2975   -8.0900    0.1459 C.3         1 ACE       0.0400
      9 CG         10.3139   -9.1046   -0.9502 C.ar        1 ACE      -0.0004
     10 CD1         9.9973  -10.4608   -0.7026 C.ar        1 ACE      -0.0239
     11 CD2        10.5550   -8.7040   -2.2824 C.ar        1 ACE      -0.0239
     12 CE1         9.9379  -11.3881   -1.7603 C.ar        1 ACE       0.0115
     13 CE2        10.4665   -9.6283   -3.3418 C.ar        1 ACE       0.0115
     14 CZ         10.1722  -10.9945   -3.0933 C.ar        1 ACE       0.1728
     15 OH         10.0292  -11.9862   -4.0529 O.3         1 ACE      -0.2040
     16 P          10.9473  -11.9953   -5.3132 P.3         1 ACE       0.1348
     17 O1P        11.1882  -13.3537   -5.7481 O.co2       1 ACE      -0.6653
     18 O2P        10.2634  -11.3439   -6.4039 O.co2       1 ACE      -0.6653
     19 O3P        12.2304  -11.3611   -5.1108 O.co2       1 ACE      -0.6653
     20 O           5.4307   -7.9760   -2.4464 O.2         1 ACE      -0.3419
     21 CD          5.2484   -3.6146   -3.4956 C.3         1 ACE      -0.0532
     22 CG          5.9192   -4.9061   -4.0284 C.3         1 ACE      -0.0516
     23 CE          4.5204   -3.8551   -2.1495 C.3         1 ACE      -0.0516
     24 CB          6.8398   -5.5499   -2.9550 C.3         1 ACE      -0.0199
     25 CH          5.4452   -4.5491   -1.1094 C.3         1 ACE      -0.0199
     26 N           7.0758   -6.2622   -0.6125 N.am        1 ACE      -0.2738
     27 C           5.0928   -6.9871   -1.8107 C.2         1 ACE       0.2267
     28 CA          6.0860   -5.8969   -1.6163 C.3         1 ACE       0.1331
     29 N           3.8426   -6.9466   -1.3560 N.am        1 ACE      -0.2608
     30 CA          2.8201   -7.9623   -1.4280 C.3         1 ACE       0.1474
     31 C           3.0208   -8.9293   -0.3536 C.2         1 ACE       0.2017
     32 O           4.0424   -9.5992   -0.2995 O.2         1 ACE      -0.3945
     33 CB          2.5974   -8.6829   -2.8021 C.3         1 ACE       0.0774
     34 CG          2.5283   -7.8084   -3.9606 C.2         1 ACE       0.1781
     35 OD1         3.1049   -8.0952   -5.0017 O.2         1 ACE      -0.3970
     36 ND2         1.7968   -6.7158   -3.9536 N.am        1 ACE      -0.3007
     37 N           2.1270   -9.1241    0.5922 N.am        1 ACE      -0.2988
     38 H1          7.0019   -9.4059    3.3418 H           1 ACE       0.0467
     39 H2          6.7576   -7.9456    4.3110 H           1 ACE       0.0467
     40 H3          8.2053   -8.9448    4.5567 H           1 ACE       0.0467
     41 H4          7.8094   -8.9429    1.3344 H           1 ACE       0.1885
     42 H5          9.1658   -6.4058    0.8259 H           1 ACE       0.0840
     43 H6         10.7132   -8.5452    1.0513 H           1 ACE       0.0584
     44 H7         11.0044   -7.2950   -0.1126 H           1 ACE       0.0584
     45 H8          9.7876  -10.7745    0.2465 H           1 ACE       0.0703
     46 H9         10.7646   -7.7275   -2.4987 H           1 ACE       0.0703
     47 H10         9.7117  -12.3634   -1.5546 H           1 ACE       0.0736
     48 H11        10.6128   -9.2967   -4.2967 H           1 ACE       0.0736
     49 H12         4.5329   -3.2489   -4.2363 H           1 ACE       0.0265
     50 H13         6.0128   -2.8433   -3.3619 H           1 ACE       0.0265
     51 H14         6.5142   -4.6630   -4.9142 H           1 ACE       0.0265
     52 H15         5.1498   -5.6213   -4.3317 H           1 ACE       0.0265
     53 H16         3.6308   -4.4633   -2.3290 H           1 ACE       0.0265
     54 H17         4.1902   -2.8936   -1.7482 H           1 ACE       0.0265
     55 H18         7.6543   -4.8488   -2.7456 H           1 ACE       0.0277
     56 H19         7.3006   -6.4432   -3.3826 H           1 ACE       0.0277
     57 H20         4.8860   -4.7185   -0.1846 H           1 ACE       0.0277
     58 H21         6.2413   -3.8402   -0.8586 H           1 ACE       0.0277
     59 H22         7.1483   -5.6494    0.1388 H           1 ACE       0.1839
     60 H23         3.5821   -6.1393   -0.8860 H           1 ACE       0.1891
     61 H24         1.8914   -7.4210   -1.2258 H           1 ACE       0.0828
     62 H25         1.6544   -9.2368   -2.7522 H           1 ACE       0.0551
     63 H26         3.3836   -9.4269   -2.9681 H           1 ACE       0.0551
     64 H27         1.7457   -6.1648   -4.7504 H           1 ACE       0.1814
     65 H28         1.3022   -6.4648   -3.1581 H           1 ACE       0.1814
     66 H29         2.2898   -9.7832    1.2880 H           1 ACE       0.1815
     67 H30         1.3016   -8.6135    0.6020 H           1 ACE       0.1815
@<TRIPOS>BOND
     1     1     2   2
     2     1     3   1
     3     4     1  am
     4     5     4   1
     5     6     5   1
     6     5     8   1
     7     6     7   2
     8    26     6  am
     9     8     9   1
    10     9    10  ar
    11     9    11  ar
    12    10    12  ar
    13    11    13  ar
    14    12    14  ar
    15    13    14  ar
    16    14    15   1
    17    15    16   1
    18    16    17  ar
    19    16    18  ar
    20    16    19  ar
    21    27    20   2
    22    22    21   1
    23    23    21   1
    24    24    22   1
    25    25    23   1
    26    28    24   1
    27    28    25   1
    28    28    26   1
    29    27    28   1
    30    27    29  am
    31    29    30   1
    32    30    31   1
    33    30    33   1
    34    31    32   2
    35    31    37  am
    36    33    34   1
    37    34    35   2
    38    34    36  am
    39     3    38   1
    40     3    39   1
    41     3    40   1
    42     4    41   1
    43     5    42   1
    44     8    43   1
    45     8    44   1
    46    10    45   1
    47    11    46   1
    48    12    47   1
    49    13    48   1
    50    21    49   1
    51    21    50   1
    52    22    51   1
    53    22    52   1
    54    23    53   1
    55    23    54   1
    56    24    55   1
    57    24    56   1
    58    25    57   1
    59    25    58   1
    60    26    59   1
    61    29    60   1
    62    30    61   1
    63    33    62   1
    64    33    63   1
    65    36    64   1
    66    36    65   1
    67    37    66   1
    68    37    67   1
@<TRIPOS>SUBSTRUCTURE
     1  ACE      1

