@<TRIPOS>MOLECULE
3s8o_ligand_048
    67    68
SMALL
GAST_HUCK
****
This file was generated by PARSER (from files_GN.cpp)

@<TRIPOS>ATOM
      1 C           9.9544   -5.8216   -0.0920 C.2         1 ACE       0.1753
      2 O          10.6955   -6.7118    0.3033 O.2         1 ACE      -0.3972
      3 CH3        10.5275   -4.5081   -0.3067 C.3         1 ACE       0.0258
      4 N           8.6723   -6.0369   -0.3511 N.am        1 ACE      -0.2628
      5 CA          7.9267   -7.2700   -0.2437 C.3         1 ACE       0.1465
      6 C           7.9219   -7.7294    1.1489 C.2         1 ACE       0.2045
      7 O           8.7940   -8.5009    1.5260 O.2         1 ACE      -0.3944
      8 CB          8.2495   -8.3791   -1.3197 C.3         1 ACE       0.0400
      9 CG          9.5005   -8.1735   -2.1070 C.ar        1 ACE      -0.0004
     10 CD1        10.6755   -8.9087   -1.8129 C.ar        1 ACE      -0.0239
     11 CD2         9.5540   -7.1895   -3.1166 C.ar        1 ACE      -0.0239
     12 CE1        11.8864   -8.6153   -2.4695 C.ar        1 ACE       0.0115
     13 CE2        10.7582   -6.9054   -3.7791 C.ar        1 ACE       0.0115
     14 CZ         11.9468   -7.5761   -3.4247 C.ar        1 ACE       0.1728
     15 OH         13.1426   -7.2976   -4.0349 O.3         1 ACE      -0.2040
     16 P          13.8827   -6.0582   -3.4493 P.3         1 ACE       0.1348
     17 O1P        15.1895   -6.0227   -4.0536 O.co2       1 ACE      -0.6653
     18 O2P        13.2375   -4.8206   -3.8225 O.co2       1 ACE      -0.6653
     19 O3P        14.0788   -6.0927   -2.0200 O.co2       1 ACE      -0.6653
     20 O           7.7323   -5.8122    4.8641 O.2         1 ACE      -0.3419
     21 CD          4.1919   -9.0117    3.5153 C.3         1 ACE      -0.0532
     22 CG          5.5320   -9.6990    3.1553 C.3         1 ACE      -0.0516
     23 CE          4.2249   -7.5117    3.1331 C.3         1 ACE      -0.0516
     24 CB          6.7346   -8.9703    3.8121 C.3         1 ACE      -0.0199
     25 CH          5.4478   -6.7931    3.7718 C.3         1 ACE      -0.0199
     26 N           7.0259   -7.2313    2.0000 N.am        1 ACE      -0.2738
     27 C           7.9495   -6.8012    4.1713 C.2         1 ACE       0.2267
     28 CA          6.8430   -7.4477    3.4234 C.3         1 ACE       0.1331
     29 N           9.1941   -7.2765    4.1162 N.am        1 ACE      -0.2608
     30 CA         10.3491   -6.8293    4.8531 C.3         1 ACE       0.1474
     31 C          11.1423   -5.9063    4.0531 C.2         1 ACE       0.2017
     32 O          11.2345   -4.7299    4.3775 O.2         1 ACE      -0.3945
     33 CB         11.1625   -8.0357    5.4343 C.3         1 ACE       0.0774
     34 CG         11.5849   -9.1086    4.5405 C.2         1 ACE       0.1781
     35 OD1        11.2002   -9.2052    3.3836 O.2         1 ACE      -0.3970
     36 ND2        12.3819  -10.0597    4.9736 N.am        1 ACE      -0.3007
     37 N          11.7749   -6.2635    2.9581 N.am        1 ACE      -0.2988
     38 H1          9.7782   -3.7873   -0.6471 H           1 ACE       0.0467
     39 H2         11.3114   -4.5764   -1.0645 H           1 ACE       0.0467
     40 H3         10.9632   -4.1363    0.6232 H           1 ACE       0.0467
     41 H4          8.1603   -5.2654   -0.6532 H           1 ACE       0.1885
     42 H5          6.8977   -6.9672   -0.4686 H           1 ACE       0.0840
     43 H6          7.4252   -8.4374   -2.0391 H           1 ACE       0.0584
     44 H7          8.2718   -9.3636   -0.8497 H           1 ACE       0.0584
     45 H8         10.6675   -9.6380   -1.0946 H           1 ACE       0.0703
     46 H9          8.7142   -6.6514   -3.3584 H           1 ACE       0.0703
     47 H10        12.7272   -9.1379   -2.2337 H           1 ACE       0.0736
     48 H11        10.7802   -6.1794   -4.5024 H           1 ACE       0.0736
     49 H12         4.0089   -9.1121    4.5890 H           1 ACE       0.0265
     50 H13         3.3733   -9.5074    2.9870 H           1 ACE       0.0265
     51 H14         5.6513   -9.7044    2.0670 H           1 ACE       0.0265
     52 H15         5.5056  -10.7411    3.4928 H           1 ACE       0.0265
     53 H16         3.3032   -7.0331    3.4750 H           1 ACE       0.0265
     54 H17         4.2658   -7.4147    2.0448 H           1 ACE       0.0265
     55 H18         7.6457   -9.5088    3.5438 H           1 ACE       0.0277
     56 H19         6.6310   -9.0530    4.8994 H           1 ACE       0.0277
     57 H20         5.2999   -6.7957    4.8580 H           1 ACE       0.0277
     58 H21         5.4338   -5.7458    3.4504 H           1 ACE       0.0277
     59 H22         6.3812   -6.6247    1.5985 H           1 ACE       0.1839
     60 H23         9.3340   -8.0296    3.5226 H           1 ACE       0.1891
     61 H24        10.0074   -6.2746    5.7380 H           1 ACE       0.0828
     62 H25        10.5559   -8.4996    6.2226 H           1 ACE       0.0551
     63 H26        12.0533   -7.6304    5.9238 H           1 ACE       0.0551
     64 H27        12.6460  -10.7790    4.3764 H           1 ACE       0.1814
     65 H28        12.7224  -10.0433    5.8832 H           1 ACE       0.1814
     66 H29        12.2806   -5.6004    2.4591 H           1 ACE       0.1815
     67 H30        11.7332   -7.1798    2.6407 H           1 ACE       0.1815
@<TRIPOS>BOND
     1     1     2   2
     2     1     3   1
     3     4     1  am
     4     5     4   1
     5     6     5   1
     6     5     8   1
     7     6     7   2
     8    26     6  am
     9     8     9   1
    10     9    10  ar
    11     9    11  ar
    12    10    12  ar
    13    11    13  ar
    14    12    14  ar
    15    13    14  ar
    16    14    15   1
    17    15    16   1
    18    16    17  ar
    19    16    18  ar
    20    16    19  ar
    21    27    20   2
    22    22    21   1
    23    23    21   1
    24    24    22   1
    25    25    23   1
    26    28    24   1
    27    28    25   1
    28    28    26   1
    29    27    28   1
    30    27    29  am
    31    29    30   1
    32    30    31   1
    33    30    33   1
    34    31    32   2
    35    31    37  am
    36    33    34   1
    37    34    35   2
    38    34    36  am
    39     3    38   1
    40     3    39   1
    41     3    40   1
    42     4    41   1
    43     5    42   1
    44     8    43   1
    45     8    44   1
    46    10    45   1
    47    11    46   1
    48    12    47   1
    49    13    48   1
    50    21    49   1
    51    21    50   1
    52    22    51   1
    53    22    52   1
    54    23    53   1
    55    23    54   1
    56    24    55   1
    57    24    56   1
    58    25    57   1
    59    25    58   1
    60    26    59   1
    61    29    60   1
    62    30    61   1
    63    33    62   1
    64    33    63   1
    65    36    64   1
    66    36    65   1
    67    37    66   1
    68    37    67   1
@<TRIPOS>SUBSTRUCTURE
     1  ACE      1

