@<TRIPOS>MOLECULE
3s8o_ligand_093
    67    68
SMALL
GAST_HUCK
****
This file was generated by PARSER (from files_GN.cpp)

@<TRIPOS>ATOM
      1 C          11.8493   -7.0133   -1.4668 C.2         1 ACE       0.1753
      2 O          10.9030   -7.5560   -0.9124 O.2         1 ACE      -0.3972
      3 CH3        12.2588   -5.7112   -0.9831 C.3         1 ACE       0.0258
      4 N          12.5083   -7.6023   -2.4600 N.am        1 ACE      -0.2628
      5 CA         12.2484   -8.8920   -3.0576 C.3         1 ACE       0.1465
      6 C          13.3266   -9.8020   -2.6556 C.2         1 ACE       0.2045
      7 O          13.0133  -10.8729   -2.1558 O.2         1 ACE      -0.3944
      8 CB         12.0849   -8.7367   -4.6111 C.3         1 ACE       0.0400
      9 CG         11.3650   -9.8381   -5.3267 C.ar        1 ACE      -0.0004
     10 CD1        11.7279  -11.1899   -5.1186 C.ar        1 ACE      -0.0239
     11 CD2        10.3415   -9.5711   -6.2709 C.ar        1 ACE      -0.0239
     12 CE1        11.0777  -12.2370   -5.7904 C.ar        1 ACE       0.0115
     13 CE2         9.7287  -10.6158   -6.9937 C.ar        1 ACE       0.0115
     14 CZ         10.1086  -11.9550   -6.7788 C.ar        1 ACE       0.1728
     15 OH          9.4934  -12.9802   -7.4510 O.3         1 ACE      -0.2040
     16 P          10.3504  -13.5717   -8.6186 P.3         1 ACE       0.1348
     17 O1P        11.6603  -13.9938   -8.1890 O.co2       1 ACE      -0.6653
     18 O2P         9.6862  -14.7454   -9.1269 O.co2       1 ACE      -0.6653
     19 O3P        10.4903  -12.6527   -9.7187 O.co2       1 ACE      -0.6653
     20 O          17.2315   -8.6585   -3.7090 O.2         1 ACE      -0.3419
     21 CD         15.7530  -13.2721   -2.2694 C.3         1 ACE      -0.0532
     22 CG         15.4606  -12.5587   -3.6065 C.3         1 ACE      -0.0516
     23 CE         15.4320  -12.3834   -1.0502 C.3         1 ACE      -0.0516
     24 CB         16.1719  -11.1836   -3.6867 C.3         1 ACE      -0.0199
     25 CH         15.9987  -10.9380   -1.1654 C.3         1 ACE      -0.0199
     26 N          14.6053   -9.4622   -2.8011 N.am        1 ACE      -0.2738
     27 C          16.8465   -9.0513   -2.6123 C.2         1 ACE       0.2267
     28 CA         15.8551  -10.1589   -2.5361 C.3         1 ACE       0.1331
     29 N          17.2933   -8.4205   -1.5274 N.am        1 ACE      -0.2608
     30 CA         18.3482   -7.4459   -1.4548 C.3         1 ACE       0.1474
     31 C          18.7330   -7.2928   -0.0535 C.2         1 ACE       0.2017
     32 O          17.9218   -6.9423    0.7909 O.2         1 ACE      -0.3945
     33 CB         18.0213   -6.0729   -2.1213 C.3         1 ACE       0.0774
     34 CG         16.8527   -5.3947   -1.5924 C.2         1 ACE       0.1781
     35 OD1        15.7328   -5.7661   -1.9092 O.2         1 ACE      -0.3970
     36 ND2        16.9634   -4.3810   -0.7627 N.am        1 ACE      -0.3007
     37 N          19.9577   -7.5412    0.3577 N.am        1 ACE      -0.2988
     38 H1         13.1230   -5.3276   -1.5281 H           1 ACE       0.0467
     39 H2         12.5191   -5.7786    0.0754 H           1 ACE       0.0467
     40 H3         11.4412   -4.9954   -1.0955 H           1 ACE       0.0467
     41 H4         13.2689   -7.1152   -2.8169 H           1 ACE       0.1885
     42 H5         11.2917   -9.2747   -2.6807 H           1 ACE       0.0840
     43 H6         13.0675   -8.6290   -5.0771 H           1 ACE       0.0584
     44 H7         11.5577   -7.7980   -4.8018 H           1 ACE       0.0584
     45 H8         12.4660  -11.4392   -4.4694 H           1 ACE       0.0703
     46 H9         10.0429   -8.6102   -6.4586 H           1 ACE       0.0703
     47 H10        11.3404  -13.2002   -5.5737 H           1 ACE       0.0736
     48 H11         8.9998  -10.4060   -7.6779 H           1 ACE       0.0736
     49 H12        16.8043  -13.5582   -2.2374 H           1 ACE       0.0265
     50 H13        15.1594  -14.1863   -2.2201 H           1 ACE       0.0265
     51 H14        14.3836  -12.4389   -3.7311 H           1 ACE       0.0265
     52 H15        15.8148  -13.1913   -4.4270 H           1 ACE       0.0265
     53 H16        15.8566  -12.8604   -0.1561 H           1 ACE       0.0265
     54 H17        14.3507  -12.3581   -0.9131 H           1 ACE       0.0265
     55 H18        15.9279  -10.7403   -4.6559 H           1 ACE       0.0277
     56 H19        17.2474  -11.3957   -3.6859 H           1 ACE       0.0277
     57 H20        17.0629  -11.0207   -0.9255 H           1 ACE       0.0277
     58 H21        15.5519  -10.3412   -0.3768 H           1 ACE       0.0277
     59 H22        14.7221   -8.5709   -3.1755 H           1 ACE       0.1839
     60 H23        16.9270   -8.7142   -0.6781 H           1 ACE       0.1891
     61 H24        19.2046   -7.8656   -1.9970 H           1 ACE       0.0828
     62 H25        17.8769   -6.2142   -3.1925 H           1 ACE       0.0551
     63 H26        18.8985   -5.4299   -2.0206 H           1 ACE       0.0551
     64 H27        16.1705   -3.9452   -0.4173 H           1 ACE       0.1814
     65 H28        17.8416   -4.0755   -0.4789 H           1 ACE       0.1814
     66 H29        20.1879   -7.4342    1.2944 H           1 ACE       0.1815
     67 H30        20.6399   -7.8328   -0.2752 H           1 ACE       0.1815
@<TRIPOS>BOND
     1     1     2   2
     2     1     3   1
     3     4     1  am
     4     5     4   1
     5     6     5   1
     6     5     8   1
     7     6     7   2
     8    26     6  am
     9     8     9   1
    10     9    10  ar
    11     9    11  ar
    12    10    12  ar
    13    11    13  ar
    14    12    14  ar
    15    13    14  ar
    16    14    15   1
    17    15    16   1
    18    16    17  ar
    19    16    18  ar
    20    16    19  ar
    21    27    20   2
    22    22    21   1
    23    23    21   1
    24    24    22   1
    25    25    23   1
    26    28    24   1
    27    28    25   1
    28    28    26   1
    29    27    28   1
    30    27    29  am
    31    29    30   1
    32    30    31   1
    33    30    33   1
    34    31    32   2
    35    31    37  am
    36    33    34   1
    37    34    35   2
    38    34    36  am
    39     3    38   1
    40     3    39   1
    41     3    40   1
    42     4    41   1
    43     5    42   1
    44     8    43   1
    45     8    44   1
    46    10    45   1
    47    11    46   1
    48    12    47   1
    49    13    48   1
    50    21    49   1
    51    21    50   1
    52    22    51   1
    53    22    52   1
    54    23    53   1
    55    23    54   1
    56    24    55   1
    57    24    56   1
    58    25    57   1
    59    25    58   1
    60    26    59   1
    61    29    60   1
    62    30    61   1
    63    33    62   1
    64    33    63   1
    65    36    64   1
    66    36    65   1
    67    37    66   1
    68    37    67   1
@<TRIPOS>SUBSTRUCTURE
     1  ACE      1

