@<TRIPOS>MOLECULE
3s8o_ligand_065
    67    68
SMALL
GAST_HUCK
****
This file was generated by PARSER (from files_GN.cpp)

@<TRIPOS>ATOM
      1 C          11.3531   -8.3781   -7.0052 C.2         1 ACE       0.1753
      2 O          10.3271   -7.7506   -6.7750 O.2         1 ACE      -0.3972
      3 CH3        12.4237   -7.6923   -7.6922 C.3         1 ACE       0.0258
      4 N          11.4956   -9.6500   -6.6557 N.am        1 ACE      -0.2628
      5 CA         10.5129  -10.4946   -6.0218 C.3         1 ACE       0.1465
      6 C          10.8716  -10.5658   -4.6039 C.2         1 ACE       0.2045
      7 O          11.1158  -11.6388   -4.0676 O.2         1 ACE      -0.3944
      8 CB         10.3887  -11.8837   -6.7366 C.3         1 ACE       0.0400
      9 CG         10.5882  -11.9064   -8.2172 C.ar        1 ACE      -0.0004
     10 CD1        11.0558  -13.0808   -8.8515 C.ar        1 ACE      -0.0239
     11 CD2        10.2813  -10.7856   -9.0249 C.ar        1 ACE      -0.0239
     12 CE1        11.2631  -13.1275  -10.2364 C.ar        1 ACE       0.0115
     13 CE2        10.5106  -10.8245  -10.4153 C.ar        1 ACE       0.0115
     14 CZ         11.0361  -11.9792  -11.0261 C.ar        1 ACE       0.1728
     15 OH         11.2349  -12.0322  -12.3800 O.3         1 ACE      -0.2040
     16 P          12.7294  -11.9552  -12.7974 P.3         1 ACE       0.1348
     17 O1P        12.7792  -11.7697  -14.2266 O.co2       1 ACE      -0.6653
     18 O2P        13.3991  -10.8274  -12.1943 O.co2       1 ACE      -0.6653
     19 O3P        13.4601  -13.1656  -12.5041 O.co2       1 ACE      -0.6653
     20 O          13.1439   -7.6145   -2.3555 O.2         1 ACE      -0.3419
     21 CD          8.7878   -9.6387   -1.0023 C.3         1 ACE      -0.0532
     22 CG          9.6980  -10.8180   -1.4235 C.3         1 ACE      -0.0516
     23 CE          8.9686   -8.4004   -1.9179 C.3         1 ACE      -0.0516
     24 CB         11.1808  -10.3696   -1.5524 C.3         1 ACE      -0.0199
     25 CH         10.4634   -8.0022   -2.0420 C.3         1 ACE      -0.0199
     26 N          10.9661   -9.4326   -3.9206 N.am        1 ACE      -0.2738
     27 C          12.8167   -8.7774   -2.5915 C.2         1 ACE       0.2267
     28 CA         11.3905   -9.1715   -2.5565 C.3         1 ACE       0.1331
     29 N          13.7552   -9.6667   -2.8877 N.am        1 ACE      -0.2608
     30 CA         15.1755   -9.4647   -2.9999 C.3         1 ACE       0.1474
     31 C          15.6573   -9.6998   -4.3571 C.2         1 ACE       0.2017
     32 O          16.7729   -9.3117   -4.6819 O.2         1 ACE      -0.3945
     33 CB         15.9278  -10.3252   -1.9285 C.3         1 ACE       0.0774
     34 CG         15.3854  -11.6469   -1.6466 C.2         1 ACE       0.1781
     35 OD1        14.1757  -11.8059   -1.5609 O.2         1 ACE      -0.3970
     36 ND2        16.1504  -12.6626   -1.3104 N.am        1 ACE      -0.3007
     37 N          14.9243  -10.2229   -5.3219 N.am        1 ACE      -0.2988
     38 H1         13.2796   -8.3492   -7.8610 H           1 ACE       0.0467
     39 H2         12.7505   -6.8415   -7.0926 H           1 ACE       0.0467
     40 H3         12.0700   -7.3298   -8.6601 H           1 ACE       0.0467
     41 H4         12.3451  -10.0621   -6.8704 H           1 ACE       0.1885
     42 H5          9.5159  -10.0392   -6.0714 H           1 ACE       0.0840
     43 H6          9.3943  -12.2961   -6.5448 H           1 ACE       0.0584
     44 H7         11.1047  -12.5708   -6.2808 H           1 ACE       0.0584
     45 H8         11.2366  -13.9293   -8.3059 H           1 ACE       0.0703
     46 H9          9.9011   -9.9343   -8.6081 H           1 ACE       0.0703
     47 H10        11.6010  -13.9866  -10.6685 H           1 ACE       0.0736
     48 H11        10.3044  -10.0007  -10.9840 H           1 ACE       0.0736
     49 H12         9.0125   -9.3578    0.0323 H           1 ACE       0.0265
     50 H13         7.7434   -9.9656   -1.0428 H           1 ACE       0.0265
     51 H14         9.3539  -11.2309   -2.3731 H           1 ACE       0.0265
     52 H15         9.6237  -11.6115   -0.6700 H           1 ACE       0.0265
     53 H16         8.4019   -7.5644   -1.5054 H           1 ACE       0.0265
     54 H17         8.5701   -8.6127   -2.9129 H           1 ACE       0.0265
     55 H18        11.7750  -11.2439   -1.8316 H           1 ACE       0.0277
     56 H19        11.5266  -10.0689   -0.5502 H           1 ACE       0.0277
     57 H20        10.8041   -7.6657   -1.0535 H           1 ACE       0.0277
     58 H21        10.5339   -7.1429   -2.7177 H           1 ACE       0.0277
     59 H22        10.7322   -8.6349   -4.4249 H           1 ACE       0.1839
     60 H23        13.4507  -10.5678   -3.0520 H           1 ACE       0.1891
     61 H24        15.4228   -8.4176   -2.7810 H           1 ACE       0.0828
     62 H25        15.9351   -9.7769   -0.9856 H           1 ACE       0.0551
     63 H26        16.9795  -10.4112   -2.2300 H           1 ACE       0.0551
     64 H27        15.7578  -13.5069   -1.0395 H           1 ACE       0.1814
     65 H28        17.1085  -12.5424   -1.2730 H           1 ACE       0.1814
     66 H29        15.2812  -10.2967   -6.2244 H           1 ACE       0.1815
     67 H30        14.0104  -10.5028   -5.1466 H           1 ACE       0.1815
@<TRIPOS>BOND
     1     1     2   2
     2     1     3   1
     3     4     1  am
     4     5     4   1
     5     6     5   1
     6     5     8   1
     7     6     7   2
     8    26     6  am
     9     8     9   1
    10     9    10  ar
    11     9    11  ar
    12    10    12  ar
    13    11    13  ar
    14    12    14  ar
    15    13    14  ar
    16    14    15   1
    17    15    16   1
    18    16    17  ar
    19    16    18  ar
    20    16    19  ar
    21    27    20   2
    22    22    21   1
    23    23    21   1
    24    24    22   1
    25    25    23   1
    26    28    24   1
    27    28    25   1
    28    28    26   1
    29    27    28   1
    30    27    29  am
    31    29    30   1
    32    30    31   1
    33    30    33   1
    34    31    32   2
    35    31    37  am
    36    33    34   1
    37    34    35   2
    38    34    36  am
    39     3    38   1
    40     3    39   1
    41     3    40   1
    42     4    41   1
    43     5    42   1
    44     8    43   1
    45     8    44   1
    46    10    45   1
    47    11    46   1
    48    12    47   1
    49    13    48   1
    50    21    49   1
    51    21    50   1
    52    22    51   1
    53    22    52   1
    54    23    53   1
    55    23    54   1
    56    24    55   1
    57    24    56   1
    58    25    57   1
    59    25    58   1
    60    26    59   1
    61    29    60   1
    62    30    61   1
    63    33    62   1
    64    33    63   1
    65    36    64   1
    66    36    65   1
    67    37    66   1
    68    37    67   1
@<TRIPOS>SUBSTRUCTURE
     1  ACE      1

