@<TRIPOS>MOLECULE
3su2_ligand_009
    95   100
SMALL
GAST_HUCK
****
This file was generated by PARSER (from files_GN.cpp)

@<TRIPOS>ATOM
      1 C1        -14.3683   -6.8413    7.9966 C.3         1 TSV      -0.0069
      2 F1        -13.2259  -16.2611   17.1799 F           1 TSV      -0.1836
      3 N1        -11.4497   -6.7069   14.7837 N.am        1 TSV      -0.2412
      4 O1         -9.1833   -6.9676   14.3850 O.3         1 TSV      -0.2580
      5 S1        -18.9999   -5.2940    9.2151 S.o2        1 TSV       0.0645
      6 C2        -15.3382   -6.8935    9.1998 C.3         1 TSV       0.1453
      7 N2        -15.0565   -7.9317   10.1418 N.am        1 TSV      -0.2722
      8 O2        -10.5116   -5.8780   12.7760 O.2         1 TSV      -0.3774
      9 C3        -14.2260   -5.8131    9.1284 C.3         1 TSV       0.0105
     10 N3        -17.3861   -5.7026    9.4827 N.am        1 TSV      -0.1550
     11 O3        -12.8840   -7.0007   12.2872 O.2         1 TSV      -0.3942
     12 C4        -16.7199   -6.6414    8.8409 C.2         1 TSV       0.2463
     13 N4        -12.9686  -13.0077   14.3537 N.am        1 TSV      -0.2075
     14 O4        -19.5476   -4.7400   10.6028 O.2         1 TSV      -0.1503
     15 C5        -14.5774   -4.4262    8.8824 C.2         1 TSV      -0.0942
     16 N5        -14.2332   -8.2705   13.4840 N.am        1 TSV      -0.2469
     17 O5        -12.8637  -11.0325   13.1188 O.2         1 TSV      -0.3166
     18 C6         -7.0048   -7.9349   14.5765 C.3         1 TSV      -0.0320
     19 O6        -19.8638   -6.6010    8.9519 O.2         1 TSV      -0.1503
     20 C7         -7.9905   -7.5371   12.2758 C.3         1 TSV      -0.0320
     21 O7        -16.2644   -7.1383   11.8424 O.2         1 TSV      -0.3947
     22 C8         -7.2902   -5.5457   13.7356 C.3         1 TSV      -0.0320
     23 O8        -14.6552  -11.3492   14.5979 O.3         1 TSV      -0.2338
     24 C9         -7.8964   -6.9796   13.7312 C.3         1 TSV       0.0905
     25 O9        -17.2521   -7.3697    8.0130 O.2         1 TSV      -0.3402
     26 C10       -14.6228   -3.4764    9.8322 C.2         1 TSV      -0.0985
     27 C11       -15.4703   -7.9624   11.4023 C.2         1 TSV       0.2014
     28 C12       -11.9467  -13.5840   13.6826 C.2         1 TSV       0.0391
     29 C13       -14.2939   -3.6320   11.2431 C.3         1 TSV      -0.0365
     30 C14       -10.5549  -16.8957   14.7813 C.ar        1 TSV      -0.0639
     31 C15       -14.8407   -8.9071   12.3267 C.3         1 TSV       0.1363
     32 C16       -10.6482  -15.7455   13.9716 C.ar        1 TSV      -0.0660
     33 C17       -11.4354  -17.0738   15.8761 C.ar        1 TSV      -0.0284
     34 C18       -15.4370   -3.2014   12.1999 C.3         1 TSV      -0.0464
     35 C19       -15.0573   -3.2057   13.7108 C.3         1 TSV      -0.0513
     36 C20       -10.3882   -6.4957   13.9726 C.2         1 TSV       0.3223
     37 C21       -12.4229  -16.1060   16.1681 C.ar        1 TSV       0.1323
     38 C22       -14.6907   -4.5953   14.3155 C.3         1 TSV      -0.0487
     39 C23       -19.2110   -4.0861    7.8875 C.3         1 TSV       0.1004
     40 C24       -11.6327  -14.7928   14.2790 C.ar        1 TSV      -0.0325
     41 C25       -13.1658   -4.9206   14.3339 C.3         1 TSV      -0.0124
     42 C26       -12.5098  -14.9627   15.3502 C.ar        1 TSV       0.0028
     43 C27       -15.8475   -9.9416   12.9024 C.3         1 TSV       0.0206
     44 C28       -12.8363   -6.4410   14.5118 C.3         1 TSV       0.1330
     45 C29       -19.8227   -2.7088    8.1813 C.3         1 TSV      -0.0268
     46 C30       -15.4256  -10.1433   14.3689 C.3         1 TSV       0.1158
     47 C31       -13.3382  -13.8422   15.3585 C.2         1 TSV       0.0402
     48 C32       -18.3092   -2.8448    7.9736 C.3         1 TSV      -0.0268
     49 C33       -13.3237   -7.2777   13.3991 C.2         1 TSV       0.2064
     50 C34       -14.6793   -8.8412   14.7212 C.3         1 TSV       0.0677
     51 C35       -13.4986  -11.8000   14.0327 C.2         1 TSV       0.4317
     52 H1        -14.7387   -6.4407    7.0516 H           1 TSV       0.0300
     53 H2        -13.5830   -7.6023    7.9625 H           1 TSV       0.0300
     54 H3        -11.2558   -7.1229   15.6397 H           1 TSV       0.1899
     55 H4        -14.4032   -8.6019    9.8778 H           1 TSV       0.1841
     56 H5        -13.3043   -5.9995    9.6864 H           1 TSV       0.0435
     57 H6        -16.9139   -5.1989   10.1647 H           1 TSV       0.2148
     58 H7        -14.7850   -4.1573    7.9490 H           1 TSV       0.0452
     59 H8         -5.9973   -7.9962   14.1618 H           1 TSV       0.0260
     60 H9         -7.4307   -8.9403   14.5872 H           1 TSV       0.0260
     61 H10        -6.9334   -7.5846   15.6083 H           1 TSV       0.0260
     62 H11        -6.9948   -7.6917   11.8514 H           1 TSV       0.0260
     63 H12        -8.5260   -6.8490   11.6205 H           1 TSV       0.0260
     64 H13        -8.5186   -8.4915   12.2694 H           1 TSV       0.0260
     65 H14        -6.2960   -5.5498   13.2862 H           1 TSV       0.0260
     66 H15        -7.2094   -5.1688   14.7578 H           1 TSV       0.0260
     67 H16        -7.9182   -4.8558   13.1698 H           1 TSV       0.0260
     68 H17       -14.8594   -2.5580    9.5363 H           1 TSV       0.0450
     69 H18       -11.4908  -13.2146   12.8454 H           1 TSV       0.0373
     70 H19       -13.4169   -3.0146   11.4435 H           1 TSV       0.0388
     71 H20       -14.0351   -4.6619   11.4792 H           1 TSV       0.0388
     72 H21        -9.8379  -17.5949   14.5845 H           1 TSV       0.0607
     73 H22       -14.0497   -9.4553   11.7961 H           1 TSV       0.0803
     74 H23       -10.0068  -15.6013   13.1890 H           1 TSV       0.0580
     75 H24       -11.3471  -17.9039   16.4580 H           1 TSV       0.0604
     76 H25       -16.2991   -3.8598   12.0485 H           1 TSV       0.0285
     77 H26       -15.7526   -2.1857   11.9401 H           1 TSV       0.0285
     78 H27       -15.9251   -2.8242   14.2566 H           1 TSV       0.0267
     79 H28       -14.2428   -2.4966   13.8835 H           1 TSV       0.0267
     80 H29       -15.2409   -5.3668   13.7760 H           1 TSV       0.0267
     81 H30       -15.0407   -4.6307   15.3512 H           1 TSV       0.0267
     82 H31       -19.3347   -4.4618    6.8713 H           1 TSV       0.0559
     83 H32       -12.7138   -4.3686   15.1636 H           1 TSV       0.0312
     84 H33       -12.6945   -4.5450   13.4260 H           1 TSV       0.0312
     85 H34       -15.8182  -10.8818   12.3451 H           1 TSV       0.0342
     86 H35       -16.8813   -9.5654   12.8783 H           1 TSV       0.0342
     87 H36       -13.3481   -6.7299   15.4308 H           1 TSV       0.0799
     88 H37       -20.1309   -2.4999    9.2064 H           1 TSV       0.0285
     89 H38       -20.3568   -2.2334    7.3573 H           1 TSV       0.0285
     90 H39       -16.3193  -10.2339   15.0003 H           1 TSV       0.0673
     91 H40       -14.0884  -13.6680   16.0336 H           1 TSV       0.0367
     92 H41       -17.9348   -2.4586    7.0244 H           1 TSV       0.0285
     93 H42       -17.7089   -2.7123    8.8759 H           1 TSV       0.0285
     94 H43       -15.3536   -8.1385   15.2229 H           1 TSV       0.0553
     95 H44       -13.8446   -9.0721   15.3905 H           1 TSV       0.0553
@<TRIPOS>BOND
     1     6     1   1
     2     9     1   1
     3    37     2   1
     4     3    36  am
     5    44     3   1
     6     4    24   1
     7    36     4   1
     8    10     5  am
     9     5    14   2
    10     5    19   2
    11     5    39   1
    12     7     6   1
    13     6     9   1
    14     6    12   1
    15    27     7  am
    16    36     8   2
    17     9    15   1
    18    12    10  am
    19    49    11   2
    20    12    25   2
    21    13    28   1
    22    13    47   1
    23    51    13  am
    24    15    26   2
    25    31    16   1
    26    16    49  am
    27    16    50   1
    28    51    17   2
    29    24    18   1
    30    24    20   1
    31    27    21   2
    32    24    22   1
    33    46    23   1
    34    23    51   1
    35    26    29   1
    36    31    27   1
    37    28    40   2
    38    29    34   1
    39    32    30  ar
    40    33    30  ar
    41    43    31   1
    42    40    32  ar
    43    37    33  ar
    44    34    35   1
    45    35    38   1
    46    42    37  ar
    47    38    41   1
    48    39    45   1
    49    39    48   1
    50    42    40  ar
    51    41    44   1
    52    47    42   2
    53    43    46   1
    54    44    49   1
    55    45    48   1
    56    46    50   1
    57     1    52   1
    58     1    53   1
    59     3    54   1
    60     7    55   1
    61     9    56   1
    62    10    57   1
    63    15    58   1
    64    18    59   1
    65    18    60   1
    66    18    61   1
    67    20    62   1
    68    20    63   1
    69    20    64   1
    70    22    65   1
    71    22    66   1
    72    22    67   1
    73    26    68   1
    74    28    69   1
    75    29    70   1
    76    29    71   1
    77    30    72   1
    78    31    73   1
    79    32    74   1
    80    33    75   1
    81    34    76   1
    82    34    77   1
    83    35    78   1
    84    35    79   1
    85    38    80   1
    86    38    81   1
    87    39    82   1
    88    41    83   1
    89    41    84   1
    90    43    85   1
    91    43    86   1
    92    44    87   1
    93    45    88   1
    94    45    89   1
    95    46    90   1
    96    47    91   1
    97    48    92   1
    98    48    93   1
    99    50    94   1
   100    50    95   1
@<TRIPOS>SUBSTRUCTURE
     1  TSV      1

