@<TRIPOS>MOLECULE
3su2_ligand_025
    95   100
SMALL
GAST_HUCK
****
This file was generated by PARSER (from files_GN.cpp)

@<TRIPOS>ATOM
      1 C1        -15.2656   -3.1160   11.0362 C.3         1 TSV      -0.0069
      2 F1        -10.5196  -14.5415    5.1841 F           1 TSV      -0.1836
      3 N1         -8.0042   -4.7683   10.4523 N.am        1 TSV      -0.2412
      4 O1         -6.7577   -3.5268    8.9493 O.3         1 TSV      -0.2580
      5 S1        -16.9146   -7.1585   13.3208 S.o2        1 TSV       0.0645
      6 C2        -14.7693   -4.5814   11.1339 C.3         1 TSV       0.1453
      7 N2        -13.9504   -4.9697   10.0280 N.am        1 TSV      -0.2722
      8 O2         -8.0896   -5.3435    8.1539 O.2         1 TSV      -0.3774
      9 C3        -14.1336   -3.4721   12.0047 C.3         1 TSV       0.0105
     10 N3        -15.7597   -6.0836   12.7307 N.am        1 TSV      -0.1550
     11 O3        -10.7501   -4.4050   10.2993 O.2         1 TSV      -0.3942
     12 C4        -15.8362   -5.4694   11.5609 C.2         1 TSV       0.2463
     13 N4         -9.9593  -10.2868    5.5801 N.am        1 TSV      -0.2075
     14 O4        -16.5591   -7.4309   14.8440 O.2         1 TSV      -0.1503
     15 C5        -14.3732   -3.4704   13.4355 C.2         1 TSV      -0.0942
     16 N5        -10.9411   -6.4588    9.4925 N.am        1 TSV      -0.2469
     17 O5         -9.8249   -8.0039    6.1233 O.2         1 TSV      -0.3166
     18 C6         -6.7059   -1.5596    7.5389 C.3         1 TSV      -0.0320
     19 O6        -16.7036   -8.5485   12.5741 O.2         1 TSV      -0.1503
     20 C7         -4.6045   -2.8249    8.1329 C.3         1 TSV      -0.0320
     21 O7        -13.3890   -6.9843   10.7789 O.2         1 TSV      -0.3947
     22 C8         -6.2343   -3.8647    6.5060 C.3         1 TSV      -0.0320
     23 O8        -11.0631   -9.4628    7.4933 O.3         1 TSV      -0.2338
     24 C9         -6.1083   -2.9732    7.7812 C.3         1 TSV       0.0905
     25 O9        -16.7523   -5.6830   10.7782 O.2         1 TSV      -0.3402
     26 C10       -13.5000   -3.9214   14.3536 C.2         1 TSV      -0.0985
     27 C11       -13.2608   -6.0969    9.9439 C.2         1 TSV       0.2014
     28 C12        -9.2053  -10.2004    4.4592 C.2         1 TSV       0.0391
     29 C13       -12.1657   -4.4682   14.1134 C.3         1 TSV      -0.0365
     30 C14        -8.4587  -13.3007    2.4461 C.ar        1 TSV      -0.0639
     31 C15       -12.2429   -6.2400    8.9073 C.3         1 TSV       0.1363
     32 C16        -8.4026  -11.9246    2.7584 C.ar        1 TSV      -0.0660
     33 C17        -9.1826  -14.1906    3.2693 C.ar        1 TSV      -0.0284
     34 C18       -11.9918   -5.9210   14.6317 C.3         1 TSV      -0.0464
     35 C19       -10.5470   -6.4907   14.4891 C.3         1 TSV      -0.0513
     36 C20        -7.6087   -4.5749    9.1700 C.2         1 TSV       0.3223
     37 C21        -9.8593  -13.7177    4.4164 C.ar        1 TSV       0.1323
     38 C22       -10.0597   -6.7552   13.0329 C.3         1 TSV      -0.0487
     39 C23       -18.6418   -6.6250   13.2046 C.3         1 TSV       0.1004
     40 C24        -9.0829  -11.4672    3.8992 C.ar        1 TSV      -0.0325
     41 C25        -9.1529   -5.6447   12.4252 C.3         1 TSV      -0.0124
     42 C26        -9.7971  -12.3426    4.7129 C.ar        1 TSV       0.0028
     43 C27       -12.4847   -7.4424    7.9623 C.3         1 TSV       0.0206
     44 C28        -8.9801   -5.7362   10.8795 C.3         1 TSV       0.1330
     45 C29       -19.1916   -5.6834   14.2884 C.3         1 TSV      -0.0268
     46 C30       -11.5512   -8.5450    8.4914 C.3         1 TSV       0.1158
     47 C31       -10.3344  -11.5772    5.7455 C.2         1 TSV       0.0402
     48 C32       -18.9881   -5.1656   12.8623 C.3         1 TSV      -0.0268
     49 C33       -10.2668   -5.5267   10.1899 C.2         1 TSV       0.2064
     50 C34       -10.4492   -7.7833    9.2533 C.3         1 TSV       0.0677
     51 C35       -10.2829   -9.2511    6.3984 C.2         1 TSV       0.4317
     52 H1        -16.2207   -2.8616   11.5020 H           1 TSV       0.0300
     53 H2        -14.9636   -2.5613   10.1454 H           1 TSV       0.0300
     54 H3         -7.6115   -4.2012   11.1431 H           1 TSV       0.1899
     55 H4        -13.7877   -4.2972    9.3490 H           1 TSV       0.1841
     56 H5        -13.1748   -3.0878   11.6600 H           1 TSV       0.0435
     57 H6        -14.9817   -5.9152   13.2893 H           1 TSV       0.2148
     58 H7        -15.2537   -3.1433   13.7614 H           1 TSV       0.0452
     59 H8         -6.1660   -1.0454    6.7453 H           1 TSV       0.0260
     60 H9         -6.6359   -0.9601    8.4474 H           1 TSV       0.0260
     61 H10        -7.7536   -1.6246    7.2539 H           1 TSV       0.0260
     62 H11        -4.0716   -2.3157    7.3275 H           1 TSV       0.0260
     63 H12        -4.1481   -3.8034    8.2814 H           1 TSV       0.0260
     64 H13        -4.4795   -2.2438    9.0500 H           1 TSV       0.0260
     65 H14        -5.6108   -3.4747    5.6968 H           1 TSV       0.0260
     66 H15        -7.2689   -3.9146    6.1544 H           1 TSV       0.0260
     67 H16        -5.9002   -4.8852    6.7242 H           1 TSV       0.0260
     68 H17       -13.7778   -3.8561   15.3101 H           1 TSV       0.0450
     69 H18        -8.7858   -9.3529    4.0734 H           1 TSV       0.0373
     70 H19       -11.4502   -3.8272   14.6321 H           1 TSV       0.0388
     71 H20       -11.9121   -4.4563   13.0529 H           1 TSV       0.0388
     72 H21        -7.9698  -13.6534    1.6210 H           1 TSV       0.0607
     73 H22       -12.2093   -5.3367    8.2884 H           1 TSV       0.0803
     74 H23        -7.8743  -11.2769    2.1686 H           1 TSV       0.0580
     75 H24        -9.2123  -15.1860    3.0331 H           1 TSV       0.0604
     76 H25       -12.6931   -6.5776   14.1073 H           1 TSV       0.0285
     77 H26       -12.2588   -5.9414   15.6943 H           1 TSV       0.0285
     78 H27       -10.5400   -7.4429   15.0237 H           1 TSV       0.0267
     79 H28        -9.8484   -5.8333   15.0115 H           1 TSV       0.0267
     80 H29       -10.9322   -6.9242   12.4016 H           1 TSV       0.0267
     81 H30        -9.4836   -7.6816   13.0221 H           1 TSV       0.0267
     82 H31       -19.3638   -7.3569   12.8390 H           1 TSV       0.0559
     83 H32        -8.1679   -5.7192   12.8933 H           1 TSV       0.0312
     84 H33        -9.5492   -4.6605   12.6719 H           1 TSV       0.0312
     85 H34       -12.2046   -7.1708    6.9409 H           1 TSV       0.0342
     86 H35       -13.5262   -7.7772    7.9487 H           1 TSV       0.0342
     87 H36        -8.5526   -6.7171   10.6630 H           1 TSV       0.0799
     88 H37       -18.4911   -5.2609   15.0123 H           1 TSV       0.0285
     89 H38       -20.2293   -5.8465   14.5861 H           1 TSV       0.0285
     90 H39       -12.1146   -9.1422    9.2146 H           1 TSV       0.0673
     91 H40       -10.9121  -11.9483    6.5024 H           1 TSV       0.0367
     92 H41       -19.8940   -5.0351   12.2688 H           1 TSV       0.0285
     93 H42       -18.1840   -4.4306   12.7792 H           1 TSV       0.0285
     94 H43       -10.2317   -8.3065   10.1919 H           1 TSV       0.0553
     95 H44        -9.5324   -7.7218    8.6604 H           1 TSV       0.0553
@<TRIPOS>BOND
     1     6     1   1
     2     9     1   1
     3    37     2   1
     4     3    36  am
     5    44     3   1
     6     4    24   1
     7    36     4   1
     8    10     5  am
     9     5    14   2
    10     5    19   2
    11     5    39   1
    12     7     6   1
    13     6     9   1
    14     6    12   1
    15    27     7  am
    16    36     8   2
    17     9    15   1
    18    12    10  am
    19    49    11   2
    20    12    25   2
    21    13    28   1
    22    13    47   1
    23    51    13  am
    24    15    26   2
    25    31    16   1
    26    16    49  am
    27    16    50   1
    28    51    17   2
    29    24    18   1
    30    24    20   1
    31    27    21   2
    32    24    22   1
    33    46    23   1
    34    23    51   1
    35    26    29   1
    36    31    27   1
    37    28    40   2
    38    29    34   1
    39    32    30  ar
    40    33    30  ar
    41    43    31   1
    42    40    32  ar
    43    37    33  ar
    44    34    35   1
    45    35    38   1
    46    42    37  ar
    47    38    41   1
    48    39    45   1
    49    39    48   1
    50    42    40  ar
    51    41    44   1
    52    47    42   2
    53    43    46   1
    54    44    49   1
    55    45    48   1
    56    46    50   1
    57     1    52   1
    58     1    53   1
    59     3    54   1
    60     7    55   1
    61     9    56   1
    62    10    57   1
    63    15    58   1
    64    18    59   1
    65    18    60   1
    66    18    61   1
    67    20    62   1
    68    20    63   1
    69    20    64   1
    70    22    65   1
    71    22    66   1
    72    22    67   1
    73    26    68   1
    74    28    69   1
    75    29    70   1
    76    29    71   1
    77    30    72   1
    78    31    73   1
    79    32    74   1
    80    33    75   1
    81    34    76   1
    82    34    77   1
    83    35    78   1
    84    35    79   1
    85    38    80   1
    86    38    81   1
    87    39    82   1
    88    41    83   1
    89    41    84   1
    90    43    85   1
    91    43    86   1
    92    44    87   1
    93    45    88   1
    94    45    89   1
    95    46    90   1
    96    47    91   1
    97    48    92   1
    98    48    93   1
    99    50    94   1
   100    50    95   1
@<TRIPOS>SUBSTRUCTURE
     1  TSV      1

