@<TRIPOS>MOLECULE
3su2_ligand_012
    95   100
SMALL
GAST_HUCK
****
This file was generated by PARSER (from files_GN.cpp)

@<TRIPOS>ATOM
      1 C1        -14.6996   -2.7243    8.2632 C.3         1 TSV      -0.0069
      2 F1        -10.2858  -14.8274    7.6513 F           1 TSV      -0.1836
      3 N1        -11.0093   -7.2888   13.0437 N.am        1 TSV      -0.2412
      4 O1         -8.8093   -6.5899   12.9809 O.3         1 TSV      -0.2580
      5 S1        -19.4619   -4.8513    8.7040 S.o2        1 TSV       0.0645
      6 C2        -15.5552   -3.8628    8.8614 C.3         1 TSV       0.1453
      7 N2        -14.9758   -5.1692    8.7603 N.am        1 TSV      -0.2722
      8 O2        -10.5192   -4.9658   13.0975 O.2         1 TSV      -0.3774
      9 C3        -14.6724   -2.9715    9.7814 C.3         1 TSV       0.0105
     10 N3        -17.7766   -4.7985    8.7095 N.am        1 TSV      -0.1550
     11 O3        -12.5369   -5.8588   11.1028 O.2         1 TSV      -0.3942
     12 C4        -17.0164   -3.7137    8.7825 C.2         1 TSV       0.2463
     13 N4        -12.1372  -10.9683    7.0433 N.am        1 TSV      -0.2075
     14 O4        -19.8459   -6.2399    8.0281 O.2         1 TSV      -0.1503
     15 C5        -15.3028   -2.0521   10.7074 C.2         1 TSV      -0.0942
     16 N5        -13.6090   -7.7654   10.7687 N.am        1 TSV      -0.2469
     17 O5        -13.4400   -9.0134    6.9267 O.2         1 TSV      -0.3166
     18 C6         -7.6907   -4.5807   12.0173 C.3         1 TSV      -0.0320
     19 O6        -20.0620   -3.7819    7.6877 O.2         1 TSV      -0.1503
     20 C7         -7.4607   -5.2490   14.4941 C.3         1 TSV      -0.0320
     21 O7        -15.7792   -5.9444   10.6832 O.2         1 TSV      -0.3947
     22 C8         -6.4460   -6.6955   12.6573 C.3         1 TSV      -0.0320
     23 O8        -13.5244  -10.3515    8.8638 O.3         1 TSV      -0.2338
     24 C9         -7.6310   -5.7628   13.0351 C.3         1 TSV       0.0905
     25 O9        -17.5348   -2.6036    8.7582 O.2         1 TSV      -0.3402
     26 C10       -15.3800   -2.2474   12.0376 C.2         1 TSV      -0.0985
     27 C11       -15.0597   -6.0988    9.7010 C.2         1 TSV       0.2014
     28 C12       -11.5452  -10.7965    5.8365 C.2         1 TSV       0.0391
     29 C13       -14.8375   -3.3559   12.8185 C.3         1 TSV      -0.0365
     30 C14        -9.2247  -13.4275    4.4643 C.ar        1 TSV      -0.0639
     31 C15       -14.2974   -7.3333    9.5700 C.3         1 TSV       0.1363
     32 C16        -9.9143  -12.1988    4.4673 C.ar        1 TSV      -0.0660
     33 C17        -9.3529  -14.3224    5.5505 C.ar        1 TSV      -0.0284
     34 C18       -15.9201   -4.1017   13.6472 C.3         1 TSV      -0.0464
     35 C19       -15.4052   -5.1745   14.6553 C.3         1 TSV      -0.0513
     36 C20       -10.1265   -6.2625   13.0429 C.2         1 TSV       0.3223
     37 C21       -10.1614  -13.9897    6.6600 C.ar        1 TSV       0.1323
     38 C22       -14.6741   -6.4159   14.0566 C.3         1 TSV      -0.0487
     39 C23       -20.2554   -4.7393   10.3271 C.3         1 TSV       0.1004
     40 C24       -10.7302  -11.8888    5.5706 C.ar        1 TSV      -0.0325
     41 C25       -13.1276   -6.2667   13.9518 C.3         1 TSV      -0.0124
     42 C26       -10.8457  -12.7581    6.6553 C.ar        1 TSV       0.0028
     43 C27       -15.2565   -8.5018    9.2299 C.3         1 TSV       0.0206
     44 C28       -12.4416   -7.2365   12.9287 C.3         1 TSV       0.1330
     45 C29       -20.5439   -6.0476   11.0875 C.3         1 TSV      -0.0268
     46 C30       -14.4951   -9.7351    9.7457 C.3         1 TSV       0.1158
     47 C31       -11.7113  -12.1469    7.5618 C.2         1 TSV       0.0402
     48 C32       -19.4193   -5.1223   11.5618 C.3         1 TSV      -0.0268
     49 C33       -12.8502   -6.9607   11.5404 C.2         1 TSV       0.2064
     50 C34       -13.8166   -9.1649   11.0137 C.3         1 TSV       0.0677
     51 C35       -13.0288  -10.1078    7.6112 C.2         1 TSV       0.4317
     52 H1        -15.1998   -1.8083    7.9396 H           1 TSV       0.0300
     53 H2        -13.7988   -3.0360    7.7248 H           1 TSV       0.0300
     54 H3        -10.6220   -8.1767   13.1532 H           1 TSV       0.1899
     55 H4        -14.4152   -5.3508    7.9876 H           1 TSV       0.1841
     56 H5        -13.6880   -3.3516   10.0679 H           1 TSV       0.0435
     57 H6        -17.3295   -5.6561    8.6988 H           1 TSV       0.2148
     58 H7        -15.7002   -1.2181   10.3362 H           1 TSV       0.0452
     59 H8         -6.7199   -4.0876   11.9346 H           1 TSV       0.0260
     60 H9         -8.4139   -3.8250   12.3240 H           1 TSV       0.0260
     61 H10        -7.9739   -4.9448   11.0280 H           1 TSV       0.0260
     62 H11        -6.5880   -4.5983   14.5734 H           1 TSV       0.0260
     63 H12        -7.3384   -6.0855   15.1846 H           1 TSV       0.0260
     64 H13        -8.3393   -4.6880   14.8080 H           1 TSV       0.0260
     65 H14        -5.4963   -6.1556   12.6996 H           1 TSV       0.0260
     66 H15        -6.5744   -7.0840   11.6438 H           1 TSV       0.0260
     67 H16        -6.3879   -7.5457   13.3400 H           1 TSV       0.0260
     68 H17       -15.8286   -1.5325   12.5558 H           1 TSV       0.0450
     69 H18       -11.6795  -10.0017    5.2074 H           1 TSV       0.0373
     70 H19       -14.0900   -2.9417   13.5004 H           1 TSV       0.0388
     71 H20       -14.3361   -4.0826   12.1820 H           1 TSV       0.0388
     72 H21        -8.6405  -13.6782    3.6657 H           1 TSV       0.0607
     73 H22       -13.5515   -7.2437    8.7634 H           1 TSV       0.0803
     74 H23        -9.8328  -11.5500    3.6790 H           1 TSV       0.0580
     75 H24        -8.8644  -15.2169    5.5221 H           1 TSV       0.0604
     76 H25       -16.6262   -4.5738   12.9606 H           1 TSV       0.0285
     77 H26       -16.4791   -3.3609   14.2270 H           1 TSV       0.0285
     78 H27       -16.2865   -5.5446   15.1869 H           1 TSV       0.0267
     79 H28       -14.7680   -4.6926   15.4013 H           1 TSV       0.0267
     80 H29       -15.1081   -6.6393   13.0833 H           1 TSV       0.0267
     81 H30       -14.8779   -7.2816   14.6949 H           1 TSV       0.0267
     82 H31       -20.9901   -3.9458   10.4922 H           1 TSV       0.0559
     83 H32       -12.7025   -6.4445   14.9463 H           1 TSV       0.0312
     84 H33       -12.8933   -5.2352   13.6946 H           1 TSV       0.0312
     85 H34       -15.5083   -8.5447    8.1695 H           1 TSV       0.0342
     86 H35       -16.2033   -8.4219    9.7841 H           1 TSV       0.0342
     87 H36       -12.7678   -8.2365   13.2192 H           1 TSV       0.0799
     88 H37       -20.1962   -6.9849   10.6498 H           1 TSV       0.0285
     89 H38       -21.4181   -6.0560   11.7399 H           1 TSV       0.0285
     90 H39       -15.2116  -10.5165   10.0203 H           1 TSV       0.0673
     91 H40       -12.0037  -12.5465    8.4587 H           1 TSV       0.0367
     92 H41       -19.6323   -4.5693   12.4781 H           1 TSV       0.0285
     93 H42       -18.4145   -5.5091   11.3915 H           1 TSV       0.0285
     94 H43       -14.4715   -9.2875   11.8829 H           1 TSV       0.0553
     95 H44       -12.8724   -9.6855   11.1987 H           1 TSV       0.0553
@<TRIPOS>BOND
     1     6     1   1
     2     9     1   1
     3    37     2   1
     4     3    36  am
     5    44     3   1
     6     4    24   1
     7    36     4   1
     8    10     5  am
     9     5    14   2
    10     5    19   2
    11     5    39   1
    12     7     6   1
    13     6     9   1
    14     6    12   1
    15    27     7  am
    16    36     8   2
    17     9    15   1
    18    12    10  am
    19    49    11   2
    20    12    25   2
    21    13    28   1
    22    13    47   1
    23    51    13  am
    24    15    26   2
    25    31    16   1
    26    16    49  am
    27    16    50   1
    28    51    17   2
    29    24    18   1
    30    24    20   1
    31    27    21   2
    32    24    22   1
    33    46    23   1
    34    23    51   1
    35    26    29   1
    36    31    27   1
    37    28    40   2
    38    29    34   1
    39    32    30  ar
    40    33    30  ar
    41    43    31   1
    42    40    32  ar
    43    37    33  ar
    44    34    35   1
    45    35    38   1
    46    42    37  ar
    47    38    41   1
    48    39    45   1
    49    39    48   1
    50    42    40  ar
    51    41    44   1
    52    47    42   2
    53    43    46   1
    54    44    49   1
    55    45    48   1
    56    46    50   1
    57     1    52   1
    58     1    53   1
    59     3    54   1
    60     7    55   1
    61     9    56   1
    62    10    57   1
    63    15    58   1
    64    18    59   1
    65    18    60   1
    66    18    61   1
    67    20    62   1
    68    20    63   1
    69    20    64   1
    70    22    65   1
    71    22    66   1
    72    22    67   1
    73    26    68   1
    74    28    69   1
    75    29    70   1
    76    29    71   1
    77    30    72   1
    78    31    73   1
    79    32    74   1
    80    33    75   1
    81    34    76   1
    82    34    77   1
    83    35    78   1
    84    35    79   1
    85    38    80   1
    86    38    81   1
    87    39    82   1
    88    41    83   1
    89    41    84   1
    90    43    85   1
    91    43    86   1
    92    44    87   1
    93    45    88   1
    94    45    89   1
    95    46    90   1
    96    47    91   1
    97    48    92   1
    98    48    93   1
    99    50    94   1
   100    50    95   1
@<TRIPOS>SUBSTRUCTURE
     1  TSV      1

