@<TRIPOS>MOLECULE
3su2_ligand_015
    95   100
SMALL
GAST_HUCK
****
This file was generated by PARSER (from files_GN.cpp)

@<TRIPOS>ATOM
      1 C1        -15.7699   -5.8936    8.3032 C.3         1 TSV      -0.0069
      2 F1         -9.7289  -14.4344   10.9535 F           1 TSV      -0.1836
      3 N1        -11.0392   -7.2922   13.7377 N.am        1 TSV      -0.2412
      4 O1         -8.8406   -6.6321   13.2938 O.3         1 TSV      -0.2580
      5 S1        -19.8873   -5.4768   11.2387 S.o2        1 TSV       0.0645
      6 C2        -16.3190   -6.3718    9.6657 C.3         1 TSV       0.1453
      7 N2        -15.7476   -7.5877   10.1572 N.am        1 TSV      -0.2722
      8 O2        -10.4568   -4.9863   13.6707 O.2         1 TSV      -0.3774
      9 C3        -15.3075   -5.1990    9.5915 C.3         1 TSV       0.0105
     10 N3        -18.2536   -5.5980   10.8389 N.am        1 TSV      -0.1550
     11 O3        -13.0283   -7.2103   11.8339 O.2         1 TSV      -0.3942
     12 C4        -17.7592   -6.2073    9.7760 C.2         1 TSV       0.2463
     13 N4        -13.7161  -14.1842   12.5677 N.am        1 TSV      -0.2075
     14 O4        -19.9798   -4.2584   12.2567 O.2         1 TSV      -0.1503
     15 C5        -15.7487   -3.8502    9.9016 C.2         1 TSV      -0.0942
     16 N5        -14.0875   -8.8056   12.9478 N.am        1 TSV      -0.2469
     17 O5        -15.8284  -13.6738   13.4640 O.2         1 TSV      -0.3166
     18 C6         -7.8757   -4.6791   12.0865 C.3         1 TSV      -0.0320
     19 O6        -20.3368   -6.7718   12.0453 O.2         1 TSV      -0.1503
     20 C7         -7.3309   -5.1874   14.5546 C.3         1 TSV      -0.0320
     21 O7        -16.4444   -7.3640   12.2541 O.2         1 TSV      -0.3947
     22 C8         -6.4913   -6.7060   12.7016 C.3         1 TSV      -0.0320
     23 O8        -14.2697  -11.9544   13.1079 O.3         1 TSV      -0.2338
     24 C9         -7.6680   -5.7921   13.1609 C.3         1 TSV       0.0905
     25 O9        -18.4715   -6.7559    8.9447 O.2         1 TSV      -0.3402
     26 C10       -15.5496   -3.2399   11.0841 C.2         1 TSV      -0.0985
     27 C11       -15.7984   -7.9880   11.4207 C.2         1 TSV       0.2014
     28 C12       -13.9284  -15.5181   12.4612 C.2         1 TSV       0.0391
     29 C13       -14.8699   -3.7911   12.2515 C.3         1 TSV      -0.0365
     30 C14       -11.2135  -17.7577   11.1117 C.ar        1 TSV      -0.0639
     31 C15       -15.0009   -9.1274   11.8717 C.3         1 TSV       0.1363
     32 C16       -12.4863  -17.4570   11.6407 C.ar        1 TSV      -0.0660
     33 C17       -10.2730  -16.7284   10.8806 C.ar        1 TSV      -0.0284
     34 C18       -15.7587   -3.8112   13.5229 C.3         1 TSV      -0.0464
     35 C19       -15.0419   -4.2604   14.8311 C.3         1 TSV      -0.0513
     36 C20       -10.1333   -6.2953   13.5693 C.2         1 TSV       0.3223
     37 C21       -10.5922  -15.3860   11.1778 C.ar        1 TSV       0.1323
     38 C22       -14.5055   -5.7264   14.8649 C.3         1 TSV      -0.0487
     39 C23       -20.9850   -5.1727    9.8314 C.3         1 TSV       0.1004
     40 C24       -12.7893  -16.1161   11.9373 C.ar        1 TSV      -0.0325
     41 C25       -13.0172   -5.8345   14.4338 C.3         1 TSV      -0.0124
     42 C26       -11.8631  -15.1006   11.7149 C.ar        1 TSV       0.0028
     43 C27       -15.9068  -10.2618   12.4169 C.3         1 TSV       0.0206
     44 C28       -12.4553   -7.2371   14.0397 C.3         1 TSV       0.1330
     45 C29       -22.1145   -4.1426    9.9679 C.3         1 TSV      -0.0268
     46 C30       -15.1003  -10.8758   13.5721 C.3         1 TSV       0.1158
     47 C31       -12.4670  -13.9143   12.1165 C.2         1 TSV       0.0402
     48 C32       -20.8754   -3.8152    9.1223 C.3         1 TSV      -0.0268
     49 C33       -13.1948   -7.7971   12.8984 C.2         1 TSV       0.2064
     50 C34       -14.2380   -9.6958   14.0633 C.3         1 TSV       0.0677
     51 C35       -14.6018  -13.2751   13.0445 C.2         1 TSV       0.4317
     52 H1        -16.4248   -5.2999    7.6598 H           1 TSV       0.0300
     53 H2        -15.0280   -6.5399    7.8297 H           1 TSV       0.0300
     54 H3        -10.6735   -8.1838   13.6638 H           1 TSV       0.1899
     55 H4        -15.2028   -8.1048    9.5438 H           1 TSV       0.1841
     56 H5        -14.2613   -5.4363    9.8031 H           1 TSV       0.0435
     57 H6        -17.6230   -5.2314   11.4765 H           1 TSV       0.2148
     58 H7        -16.2184   -3.3398    9.1888 H           1 TSV       0.0452
     59 H8         -6.9583   -4.1077   11.9393 H           1 TSV       0.0260
     60 H9         -8.6560   -3.9772   12.3781 H           1 TSV       0.0260
     61 H10        -8.1588   -5.1237   11.1315 H           1 TSV       0.0260
     62 H11        -6.4458   -4.5512   14.5003 H           1 TSV       0.0260
     63 H12        -7.1464   -5.9837   15.2798 H           1 TSV       0.0260
     64 H13        -8.1576   -4.5866   14.9295 H           1 TSV       0.0260
     65 H14        -5.5666   -6.1283   12.6094 H           1 TSV       0.0260
     66 H15        -6.7092   -7.1567   11.7310 H           1 TSV       0.0260
     67 H16        -6.3202   -7.5112   13.4180 H           1 TSV       0.0260
     68 H17       -15.8775   -2.3033   11.1670 H           1 TSV       0.0450
     69 H18       -14.7810  -16.0199   12.7243 H           1 TSV       0.0373
     70 H19       -13.9854   -3.1773   12.4436 H           1 TSV       0.0388
     71 H20       -14.5361   -4.8092   12.0613 H           1 TSV       0.0388
     72 H21       -10.9709  -18.7262   10.8940 H           1 TSV       0.0607
     73 H22       -14.4082   -9.5255   11.0406 H           1 TSV       0.0803
     74 H23       -13.1718  -18.1966   11.8065 H           1 TSV       0.0580
     75 H24        -9.3547  -16.9614   10.4956 H           1 TSV       0.0604
     76 H25       -16.6191   -4.4636   13.3488 H           1 TSV       0.0285
     77 H26       -16.1419   -2.8015   13.6913 H           1 TSV       0.0285
     78 H27       -15.7685   -4.1541   15.6403 H           1 TSV       0.0267
     79 H28       -14.2321   -3.5589   15.0506 H           1 TSV       0.0267
     80 H29       -15.1378   -6.3550   14.2406 H           1 TSV       0.0267
     81 H30       -14.5870   -6.1132   15.8862 H           1 TSV       0.0267
     82 H31       -21.2064   -6.0114    9.1689 H           1 TSV       0.0559
     83 H32       -12.4167   -5.4567   15.2685 H           1 TSV       0.0312
     84 H33       -12.8579   -5.1680   13.5882 H           1 TSV       0.0312
     85 H34       -16.1409  -10.9911   11.6365 H           1 TSV       0.0342
     86 H35       -16.8513   -9.8784   12.8199 H           1 TSV       0.0342
     87 H36       -12.5801   -7.8637   14.9239 H           1 TSV       0.0799
     88 H37       -22.1881   -3.5960   10.9098 H           1 TSV       0.0285
     89 H38       -23.0228   -4.3538    9.4013 H           1 TSV       0.0285
     90 H39       -15.7532  -11.2266   14.3768 H           1 TSV       0.0673
     91 H40       -12.0256  -12.9919   12.0771 H           1 TSV       0.0367
     92 H41       -21.0277   -3.8287    8.0418 H           1 TSV       0.0285
     93 H42       -20.1974   -3.0786    9.5562 H           1 TSV       0.0285
     94 H43       -14.7359   -9.1764   14.8882 H           1 TSV       0.0553
     95 H44       -13.2705  -10.0726   14.4087 H           1 TSV       0.0553
@<TRIPOS>BOND
     1     6     1   1
     2     9     1   1
     3    37     2   1
     4     3    36  am
     5    44     3   1
     6     4    24   1
     7    36     4   1
     8    10     5  am
     9     5    14   2
    10     5    19   2
    11     5    39   1
    12     7     6   1
    13     6     9   1
    14     6    12   1
    15    27     7  am
    16    36     8   2
    17     9    15   1
    18    12    10  am
    19    49    11   2
    20    12    25   2
    21    13    28   1
    22    13    47   1
    23    51    13  am
    24    15    26   2
    25    31    16   1
    26    16    49  am
    27    16    50   1
    28    51    17   2
    29    24    18   1
    30    24    20   1
    31    27    21   2
    32    24    22   1
    33    46    23   1
    34    23    51   1
    35    26    29   1
    36    31    27   1
    37    28    40   2
    38    29    34   1
    39    32    30  ar
    40    33    30  ar
    41    43    31   1
    42    40    32  ar
    43    37    33  ar
    44    34    35   1
    45    35    38   1
    46    42    37  ar
    47    38    41   1
    48    39    45   1
    49    39    48   1
    50    42    40  ar
    51    41    44   1
    52    47    42   2
    53    43    46   1
    54    44    49   1
    55    45    48   1
    56    46    50   1
    57     1    52   1
    58     1    53   1
    59     3    54   1
    60     7    55   1
    61     9    56   1
    62    10    57   1
    63    15    58   1
    64    18    59   1
    65    18    60   1
    66    18    61   1
    67    20    62   1
    68    20    63   1
    69    20    64   1
    70    22    65   1
    71    22    66   1
    72    22    67   1
    73    26    68   1
    74    28    69   1
    75    29    70   1
    76    29    71   1
    77    30    72   1
    78    31    73   1
    79    32    74   1
    80    33    75   1
    81    34    76   1
    82    34    77   1
    83    35    78   1
    84    35    79   1
    85    38    80   1
    86    38    81   1
    87    39    82   1
    88    41    83   1
    89    41    84   1
    90    43    85   1
    91    43    86   1
    92    44    87   1
    93    45    88   1
    94    45    89   1
    95    46    90   1
    96    47    91   1
    97    48    92   1
    98    48    93   1
    99    50    94   1
   100    50    95   1
@<TRIPOS>SUBSTRUCTURE
     1  TSV      1

