@<TRIPOS>MOLECULE
3su2_ligand_021
    95   100
SMALL
GAST_HUCK
****
This file was generated by PARSER (from files_GN.cpp)

@<TRIPOS>ATOM
      1 C1        -13.8550   -3.1446    8.3367 C.3         1 TSV      -0.0069
      2 F1        -12.5758  -15.9238    7.6921 F           1 TSV      -0.1836
      3 N1        -11.1289   -7.0592   13.8243 N.am        1 TSV      -0.2412
      4 O1         -8.8361   -7.1927   13.6818 O.3         1 TSV      -0.2580
      5 S1        -18.6391   -4.7270    8.8660 S.o2        1 TSV       0.0645
      6 C2        -14.6766   -4.3140    8.9273 C.3         1 TSV       0.1453
      7 N2        -13.9782   -5.5630    8.9456 N.am        1 TSV      -0.2722
      8 O2        -10.1555   -8.2727   12.0443 O.2         1 TSV      -0.3774
      9 C3        -14.0422   -3.2488    9.8566 C.3         1 TSV       0.0105
     10 N3        -17.0407   -4.4172    9.3069 N.am        1 TSV      -0.1550
     11 O3        -12.3012   -6.0362   11.5508 O.2         1 TSV      -0.3942
     12 C4        -16.0429   -4.3096    8.4457 C.2         1 TSV       0.2463
     13 N4        -14.5468  -13.5794   10.7148 N.am        1 TSV      -0.2075
     14 O4        -18.7043   -6.1064    8.0788 O.2         1 TSV      -0.1503
     15 C5        -14.8617   -2.2610   10.5393 C.2         1 TSV      -0.0942
     16 N5        -13.2798   -7.9947   11.1922 N.am        1 TSV      -0.2469
     17 O5        -15.5157  -11.9739   12.1433 O.2         1 TSV      -0.3166
     18 C6         -6.8822   -5.9536   13.1457 C.3         1 TSV      -0.0320
     19 O6        -19.1631   -3.5497    7.9377 O.2         1 TSV      -0.1503
     20 C7         -6.7515   -8.1764   14.4044 C.3         1 TSV      -0.0320
     21 O7        -15.5068   -6.7295   10.0732 O.2         1 TSV      -0.3947
     22 C8         -7.3030   -8.1365   11.9110 C.3         1 TSV      -0.0320
     23 O8        -14.3710  -11.2807   10.2226 O.3         1 TSV      -0.2338
     24 C9         -7.4667   -7.3877   13.2708 C.3         1 TSV       0.0905
     25 O9        -16.2219   -4.3828    7.2323 O.2         1 TSV      -0.3402
     26 C10       -15.1487   -2.2898   11.8528 C.2         1 TSV      -0.0985
     27 C11       -14.3967   -6.6651    9.5553 C.2         1 TSV       0.2014
     28 C12       -14.9175  -14.6668   11.4331 C.2         1 TSV       0.0391
     29 C13       -14.7643   -3.3147   12.8208 C.3         1 TSV      -0.0365
     30 C14       -13.9728  -18.1195   10.2425 C.ar        1 TSV      -0.0639
     31 C15       -13.4597   -7.7585    9.7803 C.3         1 TSV       0.1363
     32 C16       -14.5603  -17.1761   11.1123 C.ar        1 TSV      -0.0660
     33 C17       -13.2965  -17.6938    9.0758 C.ar        1 TSV      -0.0284
     34 C18       -15.9976   -4.0069   13.4647 C.3         1 TSV      -0.0464
     35 C19       -15.6887   -5.0859   14.5453 C.3         1 TSV      -0.0513
     36 C20       -10.0468   -7.5477   13.1828 C.2         1 TSV       0.3223
     37 C21       -13.1992  -16.3198    8.7664 C.ar        1 TSV       0.1323
     38 C22       -14.9028   -6.3410   14.0548 C.3         1 TSV      -0.0487
     39 C23       -19.7366   -4.8034   10.3042 C.3         1 TSV       0.1004
     40 C24       -14.4571  -15.8114   10.7921 C.ar        1 TSV      -0.0325
     41 C25       -13.3651   -6.2546   14.2920 C.3         1 TSV      -0.0124
     42 C26       -13.7890  -15.3917    9.6442 C.ar        1 TSV       0.0028
     43 C27       -13.9236   -9.1109    9.1906 C.3         1 TSV       0.0206
     44 C28       -12.5046   -7.2611   13.4633 C.3         1 TSV       0.1330
     45 C29       -20.1904   -6.1686   10.8486 C.3         1 TSV      -0.0268
     46 C30       -14.5346   -9.8634   10.3810 C.3         1 TSV       0.1158
     47 C31       -13.8626  -14.0036    9.6246 C.2         1 TSV       0.0402
     48 C32       -19.1308   -5.3562   11.6052 C.3         1 TSV      -0.0268
     49 C33       -12.7061   -7.0979   12.0156 C.2         1 TSV       0.2064
     50 C34       -13.7989   -9.2693   11.6012 C.3         1 TSV       0.0677
     51 C35       -14.8103  -12.2848   11.0296 C.2         1 TSV       0.4317
     52 H1        -14.3925   -2.3232    7.8519 H           1 TSV       0.0300
     53 H2        -12.8525   -3.3846    7.9732 H           1 TSV       0.0300
     54 H3        -10.9482   -6.5058   14.6036 H           1 TSV       0.1899
     55 H4        -13.0734   -5.5681    8.5931 H           1 TSV       0.1841
     56 H5        -13.0956   -3.5148   10.3366 H           1 TSV       0.0435
     57 H6        -16.8272   -4.4125   10.2543 H           1 TSV       0.2148
     58 H7        -15.2023   -1.4914   10.0080 H           1 TSV       0.0452
     59 H8         -5.8271   -5.9885   12.8683 H           1 TSV       0.0260
     60 H9         -6.9760   -5.4183   14.0923 H           1 TSV       0.0260
     61 H10        -7.4227   -5.3873   12.3848 H           1 TSV       0.0260
     62 H11        -5.6893   -8.2992   14.1713 H           1 TSV       0.0260
     63 H12        -7.2022   -9.1677   14.5161 H           1 TSV       0.0260
     64 H13        -6.8433   -7.6459   15.3574 H           1 TSV       0.0260
     65 H14        -6.2463   -8.1874   11.6208 H           1 TSV       0.0260
     66 H15        -7.8691   -7.6100   11.1328 H           1 TSV       0.0260
     67 H16        -7.6807   -9.1621   11.9805 H           1 TSV       0.0260
     68 H17       -15.6744   -1.5235   12.2093 H           1 TSV       0.0450
     69 H18       -15.4461  -14.6604   12.3089 H           1 TSV       0.0373
     70 H19       -14.1680   -2.8361   13.6040 H           1 TSV       0.0388
     71 H20       -14.1481   -4.0815   12.3533 H           1 TSV       0.0388
     72 H21       -14.0351  -19.1164   10.4570 H           1 TSV       0.0607
     73 H22       -12.4865   -7.5235    9.3326 H           1 TSV       0.0803
     74 H23       -15.0490  -17.4799   11.9558 H           1 TSV       0.0580
     75 H24       -12.8760  -18.3881    8.4549 H           1 TSV       0.0604
     76 H25       -16.5953   -4.4656   12.6690 H           1 TSV       0.0285
     77 H26       -16.6166   -3.2379   13.9410 H           1 TSV       0.0285
     78 H27       -16.6533   -5.4296   14.9291 H           1 TSV       0.0267
     79 H28       -15.1643   -4.6167   15.3805 H           1 TSV       0.0267
     80 H29       -15.1284   -6.5047   12.9970 H           1 TSV       0.0267
     81 H30       -15.2693   -7.2203   14.5950 H           1 TSV       0.0267
     82 H31       -20.4384   -3.9833   10.4576 H           1 TSV       0.0559
     83 H32       -13.1861   -6.4369   15.3566 H           1 TSV       0.0312
     84 H33       -13.0171   -5.2414   14.0856 H           1 TSV       0.0312
     85 H34       -13.0553   -9.6646    8.8149 H           1 TSV       0.0342
     86 H35       -14.6406   -9.0016    8.3708 H           1 TSV       0.0342
     87 H36       -12.7742   -8.2691   13.7887 H           1 TSV       0.0799
     88 H37       -19.8104   -7.0674   10.3612 H           1 TSV       0.0285
     89 H38       -21.1749   -6.1943   11.3205 H           1 TSV       0.0285
     90 H39       -15.6027   -9.6310   10.4369 H           1 TSV       0.0673
     91 H40       -13.4570  -13.4099    8.8958 H           1 TSV       0.0367
     92 H41       -19.4748   -4.8802   12.5264 H           1 TSV       0.0285
     93 H42       -18.1214   -5.7713   11.5617 H           1 TSV       0.0285
     94 H43       -14.5068   -9.1694   12.4301 H           1 TSV       0.0553
     95 H44       -12.9727   -9.9192   11.9060 H           1 TSV       0.0553
@<TRIPOS>BOND
     1     6     1   1
     2     9     1   1
     3    37     2   1
     4     3    36  am
     5    44     3   1
     6     4    24   1
     7    36     4   1
     8    10     5  am
     9     5    14   2
    10     5    19   2
    11     5    39   1
    12     7     6   1
    13     6     9   1
    14     6    12   1
    15    27     7  am
    16    36     8   2
    17     9    15   1
    18    12    10  am
    19    49    11   2
    20    12    25   2
    21    13    28   1
    22    13    47   1
    23    51    13  am
    24    15    26   2
    25    31    16   1
    26    16    49  am
    27    16    50   1
    28    51    17   2
    29    24    18   1
    30    24    20   1
    31    27    21   2
    32    24    22   1
    33    46    23   1
    34    23    51   1
    35    26    29   1
    36    31    27   1
    37    28    40   2
    38    29    34   1
    39    32    30  ar
    40    33    30  ar
    41    43    31   1
    42    40    32  ar
    43    37    33  ar
    44    34    35   1
    45    35    38   1
    46    42    37  ar
    47    38    41   1
    48    39    45   1
    49    39    48   1
    50    42    40  ar
    51    41    44   1
    52    47    42   2
    53    43    46   1
    54    44    49   1
    55    45    48   1
    56    46    50   1
    57     1    52   1
    58     1    53   1
    59     3    54   1
    60     7    55   1
    61     9    56   1
    62    10    57   1
    63    15    58   1
    64    18    59   1
    65    18    60   1
    66    18    61   1
    67    20    62   1
    68    20    63   1
    69    20    64   1
    70    22    65   1
    71    22    66   1
    72    22    67   1
    73    26    68   1
    74    28    69   1
    75    29    70   1
    76    29    71   1
    77    30    72   1
    78    31    73   1
    79    32    74   1
    80    33    75   1
    81    34    76   1
    82    34    77   1
    83    35    78   1
    84    35    79   1
    85    38    80   1
    86    38    81   1
    87    39    82   1
    88    41    83   1
    89    41    84   1
    90    43    85   1
    91    43    86   1
    92    44    87   1
    93    45    88   1
    94    45    89   1
    95    46    90   1
    96    47    91   1
    97    48    92   1
    98    48    93   1
    99    50    94   1
   100    50    95   1
@<TRIPOS>SUBSTRUCTURE
     1  TSV      1

