@<TRIPOS>MOLECULE
3su2_ligand_019
    95   100
SMALL
GAST_HUCK
****
This file was generated by PARSER (from files_GN.cpp)

@<TRIPOS>ATOM
      1 C1        -16.2178   -4.2794    9.8569 C.3         1 TSV      -0.0069
      2 F1        -12.2152  -16.1914    7.8472 F           1 TSV      -0.1836
      3 N1        -10.3814   -7.3726   12.9384 N.am        1 TSV      -0.2412
      4 O1         -8.5260   -6.4196   11.9541 O.3         1 TSV      -0.2580
      5 S1        -20.3769   -5.6746   11.0480 S.o2        1 TSV       0.0645
      6 C2        -16.3942   -5.3080   11.0011 C.3         1 TSV       0.1453
      7 N2        -15.7516   -6.5558   10.7309 N.am        1 TSV      -0.2722
      8 O2         -9.8537   -5.0904   13.3647 O.2         1 TSV      -0.3774
      9 C3        -15.4109   -4.1166   11.1499 C.3         1 TSV       0.0105
     10 N3        -18.7347   -5.6974   10.6702 N.am        1 TSV      -0.1550
     11 O3        -12.7927   -6.5558   11.8450 O.2         1 TSV      -0.3942
     12 C4        -17.7646   -5.3174   11.4874 C.2         1 TSV       0.2463
     13 N4        -12.0803  -12.0331    8.9441 N.am        1 TSV      -0.2075
     14 O4        -21.1290   -6.0977    9.7135 O.2         1 TSV      -0.1503
     15 C5        -15.7234   -3.0550   12.0872 C.2         1 TSV      -0.0942
     16 N5        -13.4545   -8.6328   12.2280 N.am        1 TSV      -0.2469
     17 O5        -12.1849   -9.8658    9.8161 O.2         1 TSV      -0.3166
     18 C6         -7.5970   -5.3965    9.9689 C.3         1 TSV      -0.0320
     19 O6        -20.8188   -4.1678   11.3019 O.2         1 TSV      -0.1503
     20 C7         -7.4297   -4.1391   12.1615 C.3         1 TSV      -0.0320
     21 O7        -15.9852   -7.4442   12.7568 O.2         1 TSV      -0.3947
     22 C8         -6.1385   -6.3103   11.8511 C.3         1 TSV      -0.0320
     23 O8        -13.3969  -11.6003   10.8533 O.3         1 TSV      -0.2338
     24 C9         -7.4535   -5.5551   11.5062 C.3         1 TSV       0.0905
     25 O9        -17.9827   -5.0107   12.6516 O.2         1 TSV      -0.3402
     26 C10       -15.2876   -3.0085   13.3590 C.2         1 TSV      -0.0985
     27 C11       -15.5250   -7.5117   11.6234 C.2         1 TSV       0.2014
     28 C12       -11.2866  -11.7007    7.8998 C.2         1 TSV       0.0391
     29 C13       -14.3988   -3.9560   14.0135 C.3         1 TSV      -0.0365
     30 C14       -10.2169  -14.3332    5.4307 C.ar        1 TSV      -0.0639
     31 C15       -14.5694   -8.5702   11.3029 C.3         1 TSV       0.1363
     32 C16       -10.2855  -13.0335    5.9729 C.ar        1 TSV      -0.0660
     33 C17       -10.8795  -15.4083    6.0638 C.ar        1 TSV      -0.0284
     34 C18       -15.0022   -4.6040   15.2871 C.3         1 TSV      -0.0464
     35 C19       -14.0102   -5.4658   16.1285 C.3         1 TSV      -0.0513
     36 C20        -9.5915   -6.2835   12.7852 C.2         1 TSV       0.3223
     37 C21       -11.6181  -15.1979    7.2506 C.ar        1 TSV       0.1323
     38 C22       -13.4014   -6.7158   15.4182 C.3         1 TSV      -0.0487
     39 C23       -20.8562   -6.7609   12.4159 C.3         1 TSV       0.1004
     40 C24       -11.0326  -12.8383    7.1482 C.ar        1 TSV      -0.0325
     41 C25       -12.0609   -6.4471   14.6691 C.3         1 TSV      -0.0124
     42 C26       -11.6864  -13.8936    7.7722 C.ar        1 TSV       0.0028
     43 C27       -15.2093   -9.9826   11.3237 C.3         1 TSV       0.0206
     44 C28       -11.6663   -7.5035   13.5813 C.3         1 TSV       0.1330
     45 C29       -22.3685   -6.9412   12.6302 C.3         1 TSV      -0.0268
     46 C30       -14.1169  -10.9003   11.8936 C.3         1 TSV       0.1158
     47 C31       -12.3287  -13.3632    8.8905 C.2         1 TSV       0.0402
     48 C32       -21.5191   -8.1180   12.1291 C.3         1 TSV      -0.0268
     49 C33       -12.6625   -7.5799   12.5099 C.2         1 TSV       0.2064
     50 C34       -13.2600   -9.9540   12.7595 C.3         1 TSV       0.0677
     51 C35       -12.5584  -11.1663    9.8726 C.2         1 TSV       0.4317
     52 H1        -17.0119   -3.5450    9.6962 H           1 TSV       0.0300
     53 H2        -15.6383   -4.6092    8.9896 H           1 TSV       0.0300
     54 H3        -10.0874   -8.1596   12.4489 H           1 TSV       0.1899
     55 H4        -15.3301   -6.6500    9.8615 H           1 TSV       0.1841
     56 H5        -14.3513   -4.3371   10.9922 H           1 TSV       0.0435
     57 H6        -18.4905   -5.9597    9.7669 H           1 TSV       0.2148
     58 H7        -16.2882   -2.3062   11.7597 H           1 TSV       0.0452
     59 H8         -6.7556   -4.8365    9.5535 H           1 TSV       0.0260
     60 H9         -8.5194   -4.8618    9.7281 H           1 TSV       0.0260
     61 H10        -7.6385   -6.3688    9.4838 H           1 TSV       0.0260
     62 H11        -6.5847   -3.5508   11.7934 H           1 TSV       0.0260
     63 H12        -7.3415   -4.2284   13.2487 H           1 TSV       0.0260
     64 H13        -8.3478   -3.5921   11.9316 H           1 TSV       0.0260
     65 H14        -5.2620   -5.7604   11.5025 H           1 TSV       0.0260
     66 H15        -6.1314   -7.2966   11.3848 H           1 TSV       0.0260
     67 H16        -6.0474   -6.4491   12.9310 H           1 TSV       0.0260
     68 H17       -15.5754   -2.2278   13.9022 H           1 TSV       0.0450
     69 H18       -10.9320  -10.7668    7.6756 H           1 TSV       0.0373
     70 H19       -13.4884   -3.4154   14.2825 H           1 TSV       0.0388
     71 H20       -14.1247   -4.7596   13.3346 H           1 TSV       0.0388
     72 H21        -9.6807  -14.4968    4.5760 H           1 TSV       0.0607
     73 H22       -14.1588   -8.3984   10.3029 H           1 TSV       0.0803
     74 H23        -9.8062  -12.2505    5.5207 H           1 TSV       0.0580
     75 H24       -10.8212  -16.3456    5.6583 H           1 TSV       0.0604
     76 H25       -15.8564   -5.2240   14.9975 H           1 TSV       0.0285
     77 H26       -15.3754   -3.8077   15.9369 H           1 TSV       0.0285
     78 H27       -14.5648   -5.8181   17.0036 H           1 TSV       0.0267
     79 H28       -13.2025   -4.8270   16.4994 H           1 TSV       0.0267
     80 H29       -14.1485   -7.1170   14.7344 H           1 TSV       0.0267
     81 H30       -13.2121   -7.4900   16.1658 H           1 TSV       0.0267
     82 H31       -20.2838   -6.7011   13.3441 H           1 TSV       0.0559
     83 H32       -11.2580   -6.4000   15.4108 H           1 TSV       0.0312
     84 H33       -12.1253   -5.4699   14.2055 H           1 TSV       0.0312
     85 H34       -15.5250  -10.2980   10.3291 H           1 TSV       0.0342
     86 H35       -16.0817  -10.0173   11.9885 H           1 TSV       0.0342
     87 H36       -11.6143   -8.4476   14.1189 H           1 TSV       0.0799
     88 H37       -23.0412   -6.5114   11.8854 H           1 TSV       0.0285
     89 H38       -22.6953   -7.0066   13.6683 H           1 TSV       0.0285
     90 H39       -14.5699  -11.6715   12.5213 H           1 TSV       0.0673
     91 H40       -12.8841  -13.9062    9.5525 H           1 TSV       0.0367
     92 H41       -21.3317   -8.9022   12.8638 H           1 TSV       0.0285
     93 H42       -21.6700   -8.3888   11.0830 H           1 TSV       0.0285
     94 H43       -13.5935   -9.9820   13.8027 H           1 TSV       0.0553
     95 H44       -12.2104  -10.2664   12.7099 H           1 TSV       0.0553
@<TRIPOS>BOND
     1     6     1   1
     2     9     1   1
     3    37     2   1
     4     3    36  am
     5    44     3   1
     6     4    24   1
     7    36     4   1
     8    10     5  am
     9     5    14   2
    10     5    19   2
    11     5    39   1
    12     7     6   1
    13     6     9   1
    14     6    12   1
    15    27     7  am
    16    36     8   2
    17     9    15   1
    18    12    10  am
    19    49    11   2
    20    12    25   2
    21    13    28   1
    22    13    47   1
    23    51    13  am
    24    15    26   2
    25    31    16   1
    26    16    49  am
    27    16    50   1
    28    51    17   2
    29    24    18   1
    30    24    20   1
    31    27    21   2
    32    24    22   1
    33    46    23   1
    34    23    51   1
    35    26    29   1
    36    31    27   1
    37    28    40   2
    38    29    34   1
    39    32    30  ar
    40    33    30  ar
    41    43    31   1
    42    40    32  ar
    43    37    33  ar
    44    34    35   1
    45    35    38   1
    46    42    37  ar
    47    38    41   1
    48    39    45   1
    49    39    48   1
    50    42    40  ar
    51    41    44   1
    52    47    42   2
    53    43    46   1
    54    44    49   1
    55    45    48   1
    56    46    50   1
    57     1    52   1
    58     1    53   1
    59     3    54   1
    60     7    55   1
    61     9    56   1
    62    10    57   1
    63    15    58   1
    64    18    59   1
    65    18    60   1
    66    18    61   1
    67    20    62   1
    68    20    63   1
    69    20    64   1
    70    22    65   1
    71    22    66   1
    72    22    67   1
    73    26    68   1
    74    28    69   1
    75    29    70   1
    76    29    71   1
    77    30    72   1
    78    31    73   1
    79    32    74   1
    80    33    75   1
    81    34    76   1
    82    34    77   1
    83    35    78   1
    84    35    79   1
    85    38    80   1
    86    38    81   1
    87    39    82   1
    88    41    83   1
    89    41    84   1
    90    43    85   1
    91    43    86   1
    92    44    87   1
    93    45    88   1
    94    45    89   1
    95    46    90   1
    96    47    91   1
    97    48    92   1
    98    48    93   1
    99    50    94   1
   100    50    95   1
@<TRIPOS>SUBSTRUCTURE
     1  TSV      1

