@<TRIPOS>MOLECULE
3su2_ligand_008
    95   100
SMALL
GAST_HUCK
****
This file was generated by PARSER (from files_GN.cpp)

@<TRIPOS>ATOM
      1 C1        -12.1903   -6.9440   16.5967 C.3         1 TSV      -0.0069
      2 F1        -11.4865  -15.8877    8.2597 F           1 TSV      -0.1836
      3 N1        -17.2894   -7.8822   11.0703 N.am        1 TSV      -0.2412
      4 O1        -19.2532   -8.6604   12.0054 O.3         1 TSV      -0.2580
      5 S1         -8.1164   -5.8827   14.2219 S.o2        1 TSV       0.0645
      6 C2        -11.9345   -6.6613   15.0999 C.3         1 TSV       0.1453
      7 N2        -12.2273   -7.7606   14.2321 N.am        1 TSV      -0.2722
      8 O2        -17.8306   -7.3268   13.3179 O.2         1 TSV      -0.3774
      9 C3        -13.1988   -6.0961   15.8033 C.3         1 TSV       0.0105
     10 N3         -9.5864   -6.5821   14.6706 N.am        1 TSV      -0.1550
     11 O3        -15.1378   -7.8420   12.9657 O.2         1 TSV      -0.3942
     12 C4        -10.7096   -5.9141   14.8786 C.2         1 TSV       0.2463
     13 N4        -12.3512  -11.8211    7.1479 N.am        1 TSV      -0.2075
     14 O4         -7.4444   -5.1851   15.4833 O.2         1 TSV      -0.1503
     15 C5        -13.3252   -4.6802   16.0983 C.2         1 TSV      -0.0942
     16 N5        -13.8253   -8.3961   11.2820 N.am        1 TSV      -0.2469
     17 O5        -12.7346   -9.5028    6.9330 O.2         1 TSV      -0.3166
     18 C6        -19.8157   -9.6645   14.1954 C.3         1 TSV      -0.0320
     19 O6         -8.3552   -4.8046   13.0755 O.2         1 TSV      -0.1503
     20 C7        -21.0168   -7.5644   13.3300 C.3         1 TSV      -0.0320
     21 O7        -11.8293   -6.7234   12.2996 O.2         1 TSV      -0.3947
     22 C8        -21.3264   -9.8020   12.1564 C.3         1 TSV      -0.0320
     23 O8        -12.0980  -10.4047    9.0050 O.3         1 TSV      -0.2338
     24 C9        -20.3271   -8.9045   12.9348 C.3         1 TSV       0.0905
     25 O9        -10.7790   -4.7035   14.6945 O.2         1 TSV      -0.3402
     26 C10       -13.9795   -3.7981   15.3221 C.2         1 TSV      -0.0985
     27 C11       -12.2067   -7.7195   12.9063 C.2         1 TSV       0.2014
     28 C12       -12.6581  -12.1473    5.8709 C.2         1 TSV       0.0391
     29 C13       -14.6732   -4.0791   14.0680 C.3         1 TSV      -0.0365
     30 C14       -12.4918  -15.7454    4.7600 C.ar        1 TSV      -0.0639
     31 C15       -12.7514   -8.8366   12.1394 C.3         1 TSV       0.1363
     32 C16       -12.7188  -14.3622    4.6036 C.ar        1 TSV      -0.0660
     33 C17       -12.0702  -16.2673    6.0037 C.ar        1 TSV      -0.0284
     34 C18       -14.0951   -3.2667   12.8782 C.3         1 TSV      -0.0464
     35 C19       -14.8557   -3.4161   11.5254 C.3         1 TSV      -0.0513
     36 C20       -18.1071   -7.9468   12.1466 C.2         1 TSV       0.3223
     37 C21       -11.8738  -15.4094    7.1100 C.ar        1 TSV       0.1323
     38 C22       -14.8686   -4.8464   10.9071 C.3         1 TSV      -0.0487
     39 C23        -6.9206   -7.0466   13.5264 C.3         1 TSV       0.1004
     40 C24       -12.5184  -13.5201    5.7104 C.ar        1 TSV      -0.0325
     41 C25       -16.1441   -5.6729   11.2473 C.3         1 TSV      -0.0124
     42 C26       -12.1075  -14.0341    6.9386 C.ar        1 TSV       0.0028
     43 C27       -11.6956   -9.5126   11.2310 C.3         1 TSV       0.0206
     44 C28       -16.0248   -7.2045   10.9552 C.3         1 TSV       0.1330
     45 C29        -6.8499   -8.4515   14.1392 C.3         1 TSV      -0.0268
     46 C30       -12.1167   -9.1998    9.7845 C.3         1 TSV       0.1158
     47 C31       -12.0152  -12.9547    7.8099 C.2         1 TSV       0.0402
     48 C32        -7.4287   -8.2550   12.7288 C.3         1 TSV      -0.0268
     49 C33       -14.9733   -7.8619   11.7513 C.2         1 TSV       0.2064
     50 C34       -13.5241   -8.5682    9.8942 C.3         1 TSV       0.0677
     51 C35       -12.3863  -10.5748    7.6847 C.2         1 TSV       0.4317
     52 H1        -11.5913   -6.4014   17.3348 H           1 TSV       0.0300
     53 H2        -12.5500   -7.9405   16.8531 H           1 TSV       0.0300
     54 H3        -17.6078   -8.3326   10.2685 H           1 TSV       0.1899
     55 H4        -12.5378   -8.5814   14.6471 H           1 TSV       0.1841
     56 H5        -14.1339   -6.6457   15.6486 H           1 TSV       0.0435
     57 H6         -9.6175   -7.5517   14.7438 H           1 TSV       0.2148
     58 H7        -12.9067   -4.3381   16.9345 H           1 TSV       0.0452
     59 H8        -20.6509   -9.9421   14.8415 H           1 TSV       0.0260
     60 H9        -19.1300   -9.0463   14.7775 H           1 TSV       0.0260
     61 H10       -19.2858  -10.5734   13.9025 H           1 TSV       0.0260
     62 H11       -21.9142   -7.7541   13.9219 H           1 TSV       0.0260
     63 H12       -21.3004   -7.0040   12.4360 H           1 TSV       0.0260
     64 H13       -20.3499   -6.9376   13.9238 H           1 TSV       0.0260
     65 H14       -22.1905  -10.0494   12.7741 H           1 TSV       0.0260
     66 H15       -20.8431  -10.7327   11.8506 H           1 TSV       0.0260
     67 H16       -21.6777   -9.2911   11.2581 H           1 TSV       0.0260
     68 H17       -14.0031   -2.8547   15.6367 H           1 TSV       0.0450
     69 H18       -12.9554  -11.5008    5.1346 H           1 TSV       0.0373
     70 H19       -15.7260   -3.8194   14.2008 H           1 TSV       0.0388
     71 H20       -14.6186   -5.1365   13.8145 H           1 TSV       0.0388
     72 H21       -12.6307  -16.3763    3.9659 H           1 TSV       0.0607
     73 H22       -13.1460   -9.5999   12.8224 H           1 TSV       0.0803
     74 H23       -13.0248  -13.9817    3.7068 H           1 TSV       0.0580
     75 H24       -11.9054  -17.2724    6.1014 H           1 TSV       0.0604
     76 H25       -13.0504   -3.5558   12.7259 H           1 TSV       0.0285
     77 H26       -14.1094   -2.2040   13.1424 H           1 TSV       0.0285
     78 H27       -14.3674   -2.7447   10.8122 H           1 TSV       0.0267
     79 H28       -15.8794   -3.0492   11.6465 H           1 TSV       0.0267
     80 H29       -13.9705   -5.3768   11.2258 H           1 TSV       0.0267
     81 H30       -14.8172   -4.7619    9.8182 H           1 TSV       0.0267
     82 H31        -5.9670   -6.6479   13.1780 H           1 TSV       0.0559
     83 H32       -16.9810   -5.2654   10.6689 H           1 TSV       0.0312
     84 H33       -16.3869   -5.5185   12.2956 H           1 TSV       0.0312
     85 H34       -11.7024  -10.5929   11.4058 H           1 TSV       0.0342
     86 H35       -10.6784   -9.1567   11.4209 H           1 TSV       0.0342
     87 H36       -15.7856   -7.2781    9.8949 H           1 TSV       0.0799
     88 H37        -7.5779   -8.6925   14.9151 H           1 TSV       0.0285
     89 H38        -5.8492   -8.8853   14.1918 H           1 TSV       0.0285
     90 H39       -11.4150   -8.4816    9.3473 H           1 TSV       0.0673
     91 H40       -11.7382  -13.0229    8.7928 H           1 TSV       0.0367
     92 H41        -6.7888   -8.5945   11.9104 H           1 TSV       0.0285
     93 H42        -8.5102   -8.3564   12.6385 H           1 TSV       0.0285
     94 H43       -13.5271   -7.6041    9.3764 H           1 TSV       0.0553
     95 H44       -14.2726   -9.2220    9.4408 H           1 TSV       0.0553
@<TRIPOS>BOND
     1     6     1   1
     2     9     1   1
     3    37     2   1
     4     3    36  am
     5    44     3   1
     6     4    24   1
     7    36     4   1
     8    10     5  am
     9     5    14   2
    10     5    19   2
    11     5    39   1
    12     7     6   1
    13     6     9   1
    14     6    12   1
    15    27     7  am
    16    36     8   2
    17     9    15   1
    18    12    10  am
    19    49    11   2
    20    12    25   2
    21    13    28   1
    22    13    47   1
    23    51    13  am
    24    15    26   2
    25    31    16   1
    26    16    49  am
    27    16    50   1
    28    51    17   2
    29    24    18   1
    30    24    20   1
    31    27    21   2
    32    24    22   1
    33    46    23   1
    34    23    51   1
    35    26    29   1
    36    31    27   1
    37    28    40   2
    38    29    34   1
    39    32    30  ar
    40    33    30  ar
    41    43    31   1
    42    40    32  ar
    43    37    33  ar
    44    34    35   1
    45    35    38   1
    46    42    37  ar
    47    38    41   1
    48    39    45   1
    49    39    48   1
    50    42    40  ar
    51    41    44   1
    52    47    42   2
    53    43    46   1
    54    44    49   1
    55    45    48   1
    56    46    50   1
    57     1    52   1
    58     1    53   1
    59     3    54   1
    60     7    55   1
    61     9    56   1
    62    10    57   1
    63    15    58   1
    64    18    59   1
    65    18    60   1
    66    18    61   1
    67    20    62   1
    68    20    63   1
    69    20    64   1
    70    22    65   1
    71    22    66   1
    72    22    67   1
    73    26    68   1
    74    28    69   1
    75    29    70   1
    76    29    71   1
    77    30    72   1
    78    31    73   1
    79    32    74   1
    80    33    75   1
    81    34    76   1
    82    34    77   1
    83    35    78   1
    84    35    79   1
    85    38    80   1
    86    38    81   1
    87    39    82   1
    88    41    83   1
    89    41    84   1
    90    43    85   1
    91    43    86   1
    92    44    87   1
    93    45    88   1
    94    45    89   1
    95    46    90   1
    96    47    91   1
    97    48    92   1
    98    48    93   1
    99    50    94   1
   100    50    95   1
@<TRIPOS>SUBSTRUCTURE
     1  TSV      1

