@<TRIPOS>MOLECULE
3su2_ligand_034
    95   100
SMALL
GAST_HUCK
****
This file was generated by PARSER (from files_GN.cpp)

@<TRIPOS>ATOM
      1 C1         -8.9023   -6.4042    6.8727 C.3         1 TSV      -0.0069
      2 F1         -9.5789  -18.4020   10.6788 F           1 TSV      -0.1836
      3 N1        -13.5409   -7.6749   12.3593 N.am        1 TSV      -0.2412
      4 O1        -12.8660   -6.7303   14.3532 O.3         1 TSV      -0.2580
      5 S1         -9.9883   -7.8543    2.6514 S.o2        1 TSV       0.0645
      6 C2        -10.2563   -7.0950    6.5768 C.3         1 TSV       0.1453
      7 N2        -10.5363   -8.2592    7.3637 N.am        1 TSV      -0.2722
      8 O2        -14.4308   -5.5608   13.0452 O.2         1 TSV      -0.3774
      9 C3        -10.2048   -5.7890    7.4117 C.3         1 TSV       0.0105
     10 N3         -9.7819   -7.7696    4.3245 N.am        1 TSV      -0.1550
     11 O3        -11.9947   -7.6010   10.1334 O.2         1 TSV      -0.3942
     12 C4        -10.5801   -7.1216    5.1596 C.2         1 TSV       0.2463
     13 N4        -11.6759  -14.6568   10.3397 N.am        1 TSV      -0.2075
     14 O4        -10.4460   -6.4390    2.0886 O.2         1 TSV      -0.1503
     15 C5        -10.7306   -4.5628    6.8407 C.2         1 TSV      -0.0942
     16 N5        -12.9784   -9.4821    9.5044 N.am        1 TSV      -0.2469
     17 O5        -12.3799  -14.2977    8.1285 O.2         1 TSV      -0.3166
     18 C6        -13.8913   -6.0832   16.5017 C.3         1 TSV      -0.0320
     19 O6        -11.0797   -8.9499    2.2780 O.2         1 TSV      -0.1503
     20 C7        -11.3816   -6.3585   16.1534 C.3         1 TSV      -0.0320
     21 O7        -12.7000   -8.3600    6.8887 O.2         1 TSV      -0.3947
     22 C8        -12.5470   -4.3747   15.1094 C.3         1 TSV      -0.0320
     23 O8        -12.8107  -12.6660    9.7482 O.3         1 TSV      -0.2338
     24 C9        -12.7092   -5.8754   15.5090 C.3         1 TSV       0.0905
     25 O9        -11.6077   -6.5790    4.7794 O.2         1 TSV      -0.3402
     26 C10       -11.9675   -4.0860    7.0729 C.2         1 TSV      -0.0985
     27 C11       -11.7427   -8.7889    7.5197 C.2         1 TSV       0.2014
     28 C12       -11.5188  -14.3581   11.6517 C.2         1 TSV       0.0391
     29 C13       -12.9905   -4.6650    7.9396 C.3         1 TSV      -0.0365
     30 C14        -9.6752  -16.7492   13.9243 C.ar        1 TSV      -0.0639
     31 C15       -11.9802   -9.8295    8.5221 C.3         1 TSV       0.1363
     32 C16       -10.4011  -15.5813   13.6074 C.ar        1 TSV      -0.0660
     33 C17        -9.3973  -17.7115   12.9287 C.ar        1 TSV      -0.0284
     34 C18       -14.3062   -4.9991    7.1899 C.3         1 TSV      -0.0464
     35 C19       -15.4859   -5.4696    8.0888 C.3         1 TSV      -0.0513
     36 C20       -13.6422   -6.6473   13.2361 C.2         1 TSV       0.3223
     37 C21        -9.8383  -17.5173   11.6018 C.ar        1 TSV       0.1323
     38 C22       -15.2515   -6.7839    8.9017 C.3         1 TSV      -0.0487
     39 C23        -8.4612   -8.2462    1.7695 C.3         1 TSV       0.1004
     40 C24       -10.8254  -15.3912   12.2787 C.ar        1 TSV      -0.0325
     41 C25       -14.7258   -6.5745   10.3563 C.3         1 TSV      -0.0124
     42 C26       -10.5512  -16.3419   11.2971 C.ar        1 TSV       0.0028
     43 C27       -12.4969  -11.1251    7.8518 C.3         1 TSV       0.0206
     44 C28       -14.0789   -7.8327   11.0316 C.3         1 TSV       0.1330
     45 C29        -7.1257   -7.8919    2.4392 C.3         1 TSV      -0.0268
     46 C30       -13.4682  -11.7339    8.8734 C.3         1 TSV       0.1158
     47 C31       -11.0924  -15.8584   10.1095 C.2         1 TSV       0.0402
     48 C32        -7.5703   -9.3583    2.3397 C.3         1 TSV      -0.0268
     49 C33       -12.9673   -8.3425   10.2160 C.2         1 TSV       0.2064
     50 C34       -13.9774  -10.4981    9.6416 C.3         1 TSV       0.0677
     51 C35       -12.2948  -13.8819    9.4136 C.2         1 TSV       0.4317
     52 H1         -8.4196   -5.8471    6.0639 H           1 TSV       0.0300
     53 H2         -8.2708   -6.8754    7.6298 H           1 TSV       0.0300
     54 H3        -12.9822   -8.4174   12.6591 H           1 TSV       0.1899
     55 H4         -9.8160   -8.6062    7.9148 H           1 TSV       0.1841
     56 H5        -10.2671   -5.8946    8.4981 H           1 TSV       0.0435
     57 H6         -9.0052   -8.2156    4.7021 H           1 TSV       0.2148
     58 H7        -10.1346   -4.0392    6.2402 H           1 TSV       0.0452
     59 H8        -13.7406   -5.4855   17.4039 H           1 TSV       0.0260
     60 H9        -13.9651   -7.1331   16.7892 H           1 TSV       0.0260
     61 H10       -14.8361   -5.7849   16.0445 H           1 TSV       0.0260
     62 H11       -11.1759   -5.8257   17.0851 H           1 TSV       0.0260
     63 H12       -10.5430   -6.1907   15.4706 H           1 TSV       0.0260
     64 H13       -11.4263   -7.4257   16.3701 H           1 TSV       0.0260
     65 H14       -12.1999   -3.7789   15.9561 H           1 TSV       0.0260
     66 H15       -13.4904   -3.9541   14.7577 H           1 TSV       0.0260
     67 H16       -11.8171   -4.2798   14.3018 H           1 TSV       0.0260
     68 H17       -12.2069   -3.2284    6.6258 H           1 TSV       0.0450
     69 H18       -11.8464  -13.5080   12.1173 H           1 TSV       0.0373
     70 H19       -13.2001   -3.9352    8.7313 H           1 TSV       0.0388
     71 H20       -12.6287   -5.5754    8.4181 H           1 TSV       0.0388
     72 H21        -9.3418  -16.8962   14.8790 H           1 TSV       0.0607
     73 H22       -11.0532  -10.0507    9.0644 H           1 TSV       0.0803
     74 H23       -10.6062  -14.8838   14.3281 H           1 TSV       0.0580
     75 H24        -8.8693  -18.5497   13.1704 H           1 TSV       0.0604
     76 H25       -14.1004   -5.7735    6.4513 H           1 TSV       0.0285
     77 H26       -14.6365   -4.1085    6.6501 H           1 TSV       0.0285
     78 H27       -16.3357   -5.6462    7.4186 H           1 TSV       0.0267
     79 H28       -15.7870   -4.6608    8.7601 H           1 TSV       0.0267
     80 H29       -14.5769   -7.4158    8.3222 H           1 TSV       0.0267
     81 H30       -16.2018   -7.3339    8.9606 H           1 TSV       0.0267
     82 H31        -8.4668   -8.1753    0.6799 H           1 TSV       0.0559
     83 H32       -15.5865   -6.2564   10.9483 H           1 TSV       0.0312
     84 H33       -14.0040   -5.7582   10.3761 H           1 TSV       0.0312
     85 H34       -11.6695  -11.7912    7.6044 H           1 TSV       0.0342
     86 H35       -13.0501  -10.9174    6.9318 H           1 TSV       0.0342
     87 H36       -14.8757   -8.5712   11.1330 H           1 TSV       0.0799
     88 H37        -7.1564   -7.4728    3.4456 H           1 TSV       0.0285
     89 H38        -6.3129   -7.6097    1.7683 H           1 TSV       0.0285
     90 H39       -14.3105  -12.2285    8.3790 H           1 TSV       0.0673
     91 H40       -11.0383  -16.3464    9.2085 H           1 TSV       0.0367
     92 H41        -7.0299   -9.9601    1.6075 H           1 TSV       0.0285
     93 H42        -7.8869   -9.8162    3.2779 H           1 TSV       0.0285
     94 H43       -14.9216  -10.1418    9.2123 H           1 TSV       0.0553
     95 H44       -14.1350  -10.7587   10.6923 H           1 TSV       0.0553
@<TRIPOS>BOND
     1     6     1   1
     2     9     1   1
     3    37     2   1
     4     3    36  am
     5    44     3   1
     6     4    24   1
     7    36     4   1
     8    10     5  am
     9     5    14   2
    10     5    19   2
    11     5    39   1
    12     7     6   1
    13     6     9   1
    14     6    12   1
    15    27     7  am
    16    36     8   2
    17     9    15   1
    18    12    10  am
    19    49    11   2
    20    12    25   2
    21    13    28   1
    22    13    47   1
    23    51    13  am
    24    15    26   2
    25    31    16   1
    26    16    49  am
    27    16    50   1
    28    51    17   2
    29    24    18   1
    30    24    20   1
    31    27    21   2
    32    24    22   1
    33    46    23   1
    34    23    51   1
    35    26    29   1
    36    31    27   1
    37    28    40   2
    38    29    34   1
    39    32    30  ar
    40    33    30  ar
    41    43    31   1
    42    40    32  ar
    43    37    33  ar
    44    34    35   1
    45    35    38   1
    46    42    37  ar
    47    38    41   1
    48    39    45   1
    49    39    48   1
    50    42    40  ar
    51    41    44   1
    52    47    42   2
    53    43    46   1
    54    44    49   1
    55    45    48   1
    56    46    50   1
    57     1    52   1
    58     1    53   1
    59     3    54   1
    60     7    55   1
    61     9    56   1
    62    10    57   1
    63    15    58   1
    64    18    59   1
    65    18    60   1
    66    18    61   1
    67    20    62   1
    68    20    63   1
    69    20    64   1
    70    22    65   1
    71    22    66   1
    72    22    67   1
    73    26    68   1
    74    28    69   1
    75    29    70   1
    76    29    71   1
    77    30    72   1
    78    31    73   1
    79    32    74   1
    80    33    75   1
    81    34    76   1
    82    34    77   1
    83    35    78   1
    84    35    79   1
    85    38    80   1
    86    38    81   1
    87    39    82   1
    88    41    83   1
    89    41    84   1
    90    43    85   1
    91    43    86   1
    92    44    87   1
    93    45    88   1
    94    45    89   1
    95    46    90   1
    96    47    91   1
    97    48    92   1
    98    48    93   1
    99    50    94   1
   100    50    95   1
@<TRIPOS>SUBSTRUCTURE
     1  TSV      1

