@<TRIPOS>MOLECULE
3su2_ligand_032
    95   100
SMALL
GAST_HUCK
****
This file was generated by PARSER (from files_GN.cpp)

@<TRIPOS>ATOM
      1 C1        -10.6643   -3.8501    6.0264 C.3         1 TSV      -0.0069
      2 F1         -7.4440  -16.0952   11.3229 F           1 TSV      -0.1836
      3 N1        -13.0501   -8.1823   11.5088 N.am        1 TSV      -0.2412
      4 O1        -12.5499   -7.3990   13.6295 O.3         1 TSV      -0.2580
      5 S1        -11.8172   -5.2180    1.7610 S.o2        1 TSV       0.0645
      6 C2        -11.6224   -5.0340    5.7528 C.3         1 TSV       0.1453
      7 N2        -11.1494   -6.2901    6.2444 N.am        1 TSV      -0.2722
      8 O2        -14.3827   -6.4666   12.5103 O.2         1 TSV      -0.3774
      9 C3        -11.9314   -4.0144    6.8781 C.3         1 TSV       0.0105
     10 N3        -11.3658   -5.2524    3.3864 N.am        1 TSV      -0.1550
     11 O3        -12.0601   -6.9662    9.2312 O.2         1 TSV      -0.3942
     12 C4        -12.1630   -4.9742    4.4037 C.2         1 TSV       0.2463
     13 N4         -9.2167  -13.0615    8.8419 N.am        1 TSV      -0.2075
     14 O4        -10.4570   -5.3430    0.9462 O.2         1 TSV      -0.1503
     15 C5        -13.0647   -3.1225    6.7227 C.2         1 TSV      -0.0942
     16 N5        -12.2363   -8.9194    8.2000 N.am        1 TSV      -0.2469
     17 O5        -11.5583  -13.2991    8.7980 O.2         1 TSV      -0.3166
     18 C6        -11.3181   -7.1076   15.6675 C.3         1 TSV      -0.0320
     19 O6        -12.3619   -3.7729    1.3813 O.2         1 TSV      -0.1503
     20 C7        -12.4583   -5.1176   14.5718 C.3         1 TSV      -0.0320
     21 O7        -13.0368   -7.4037    5.9084 O.2         1 TSV      -0.3947
     22 C8        -13.8583   -6.9574   15.6823 C.3         1 TSV      -0.0320
     23 O8        -10.5449  -11.5386    7.6280 O.3         1 TSV      -0.2338
     24 C9        -12.5691   -6.6444   14.8638 C.3         1 TSV       0.0905
     25 O9        -13.3476   -4.7008    4.2486 O.2         1 TSV      -0.3402
     26 C10       -14.3046   -3.3724    7.1860 C.2         1 TSV      -0.0985
     27 C11       -11.8927   -7.3829    6.3464 C.2         1 TSV       0.2014
     28 C12        -8.0217  -12.5218    8.5000 C.2         1 TSV       0.0391
     29 C13       -14.7442   -4.5358    7.9474 C.3         1 TSV      -0.0365
     30 C14        -4.8335  -14.0202    9.8549 C.ar        1 TSV      -0.0639
     31 C15       -11.4018   -8.5510    7.0754 C.3         1 TSV       0.1363
     32 C16        -5.6061  -13.1131    9.0980 C.ar        1 TSV      -0.0660
     33 C17        -5.4586  -15.0418   10.6045 C.ar        1 TSV      -0.0284
     34 C18       -15.9011   -5.3147    7.2637 C.3         1 TSV      -0.0464
     35 C19       -16.5320   -6.4641    8.1068 C.3         1 TSV      -0.0513
     36 C20       -13.3566   -7.3493   12.5353 C.2         1 TSV       0.3223
     37 C21        -6.8642  -15.1643   10.6156 C.ar        1 TSV       0.1323
     38 C22       -15.5712   -7.6167    8.5268 C.3         1 TSV      -0.0487
     39 C23       -12.8954   -6.5274    1.1322 C.3         1 TSV       0.1004
     40 C24        -7.0068  -13.2485    9.1131 C.ar        1 TSV      -0.0325
     41 C25       -14.8897   -7.4137    9.9110 C.3         1 TSV      -0.0124
     42 C26        -7.6214  -14.2535    9.8554 C.ar        1 TSV       0.0028
     43 C27       -11.3597   -9.7993    6.1561 C.3         1 TSV       0.0206
     44 C28       -13.6392   -8.3070   10.1968 C.3         1 TSV       0.1330
     45 C29       -12.5008   -7.9679    1.4898 C.3         1 TSV      -0.0268
     46 C30       -11.7418  -10.9635    7.0780 C.3         1 TSV       0.1158
     47 C31        -8.9907  -14.1143    9.6621 C.2         1 TSV       0.0402
     48 C32       -13.7683   -7.3485    2.0933 C.3         1 TSV      -0.0268
     49 C33       -12.5872   -8.0739    9.1922 C.2         1 TSV       0.2064
     50 C34       -12.6402  -10.2923    8.1379 C.3         1 TSV       0.0677
     51 C35       -10.4362  -12.6319    8.4307 C.2         1 TSV       0.4317
     52 H1        -10.6732   -2.9985    5.3400 H           1 TSV       0.0300
     53 H2         -9.7302   -4.0835    6.5436 H           1 TSV       0.0300
     54 H3        -12.2942   -8.7693   11.6732 H           1 TSV       0.1899
     55 H4        -10.2594   -6.3108    6.6305 H           1 TSV       0.1841
     56 H5        -11.6889   -4.3300    7.8959 H           1 TSV       0.0435
     57 H6        -10.4445   -5.4775    3.5842 H           1 TSV       0.2148
     58 H7        -12.9144   -2.2668    6.2410 H           1 TSV       0.0452
     59 H8        -11.2603   -6.5880   16.6266 H           1 TSV       0.0260
     60 H9        -10.4026   -6.8988   15.1091 H           1 TSV       0.0260
     61 H10       -11.3586   -8.1816   15.8611 H           1 TSV       0.0260
     62 H11       -12.4000   -4.5488   15.5025 H           1 TSV       0.0260
     63 H12       -13.3238   -4.7639   14.0085 H           1 TSV       0.0260
     64 H13       -11.5636   -4.9057   13.9834 H           1 TSV       0.0260
     65 H14       -13.8138   -6.4857   16.6669 H           1 TSV       0.0260
     66 H15       -13.9713   -8.0351   15.8214 H           1 TSV       0.0260
     67 H16       -14.7459   -6.5849   15.1689 H           1 TSV       0.0260
     68 H17       -14.9921   -2.6720    7.0199 H           1 TSV       0.0450
     69 H18        -7.8727  -11.7155    7.8882 H           1 TSV       0.0373
     70 H19       -15.0826   -4.1827    8.9245 H           1 TSV       0.0388
     71 H20       -13.9199   -5.2280    8.1099 H           1 TSV       0.0388
     72 H21        -3.8151  -13.9373    9.8641 H           1 TSV       0.0607
     73 H22       -10.3919   -8.3658    7.4579 H           1 TSV       0.0803
     74 H23        -5.1578  -12.3704    8.5572 H           1 TSV       0.0580
     75 H24        -4.8863  -15.6936   11.1461 H           1 TSV       0.0604
     76 H25       -15.5386   -5.7321    6.3188 H           1 TSV       0.0285
     77 H26       -16.7029   -4.6103    7.0244 H           1 TSV       0.0285
     78 H27       -17.3279   -6.9013    7.4973 H           1 TSV       0.0267
     79 H28       -17.0127   -6.0402    8.9933 H           1 TSV       0.0267
     80 H29       -14.8276   -7.7435    7.7434 H           1 TSV       0.0267
     81 H30       -16.1372   -8.5504    8.5730 H           1 TSV       0.0267
     82 H31       -13.2928   -6.4142    0.1227 H           1 TSV       0.0559
     83 H32       -15.6451   -7.6246   10.6770 H           1 TSV       0.0312
     84 H33       -14.5961   -6.3705   10.0268 H           1 TSV       0.0312
     85 H34       -10.3717   -9.9365    5.7099 H           1 TSV       0.0342
     86 H35       -12.0945   -9.7437    5.3459 H           1 TSV       0.0342
     87 H36       -13.9979   -9.3346   10.1472 H           1 TSV       0.0799
     88 H37       -11.6782   -8.1039    2.1940 H           1 TSV       0.0285
     89 H38       -12.6676   -8.7152    0.7124 H           1 TSV       0.0285
     90 H39       -12.2901  -11.7329    6.5251 H           1 TSV       0.0673
     91 H40        -9.7015  -14.7174   10.0832 H           1 TSV       0.0367
     92 H41       -14.7030   -7.7405    1.6884 H           1 TSV       0.0285
     93 H42       -13.6958   -7.1497    3.1618 H           1 TSV       0.0285
     94 H43       -13.6914  -10.3521    7.8427 H           1 TSV       0.0553
     95 H44       -12.5074  -10.7925    9.0999 H           1 TSV       0.0553
@<TRIPOS>BOND
     1     6     1   1
     2     9     1   1
     3    37     2   1
     4     3    36  am
     5    44     3   1
     6     4    24   1
     7    36     4   1
     8    10     5  am
     9     5    14   2
    10     5    19   2
    11     5    39   1
    12     7     6   1
    13     6     9   1
    14     6    12   1
    15    27     7  am
    16    36     8   2
    17     9    15   1
    18    12    10  am
    19    49    11   2
    20    12    25   2
    21    13    28   1
    22    13    47   1
    23    51    13  am
    24    15    26   2
    25    31    16   1
    26    16    49  am
    27    16    50   1
    28    51    17   2
    29    24    18   1
    30    24    20   1
    31    27    21   2
    32    24    22   1
    33    46    23   1
    34    23    51   1
    35    26    29   1
    36    31    27   1
    37    28    40   2
    38    29    34   1
    39    32    30  ar
    40    33    30  ar
    41    43    31   1
    42    40    32  ar
    43    37    33  ar
    44    34    35   1
    45    35    38   1
    46    42    37  ar
    47    38    41   1
    48    39    45   1
    49    39    48   1
    50    42    40  ar
    51    41    44   1
    52    47    42   2
    53    43    46   1
    54    44    49   1
    55    45    48   1
    56    46    50   1
    57     1    52   1
    58     1    53   1
    59     3    54   1
    60     7    55   1
    61     9    56   1
    62    10    57   1
    63    15    58   1
    64    18    59   1
    65    18    60   1
    66    18    61   1
    67    20    62   1
    68    20    63   1
    69    20    64   1
    70    22    65   1
    71    22    66   1
    72    22    67   1
    73    26    68   1
    74    28    69   1
    75    29    70   1
    76    29    71   1
    77    30    72   1
    78    31    73   1
    79    32    74   1
    80    33    75   1
    81    34    76   1
    82    34    77   1
    83    35    78   1
    84    35    79   1
    85    38    80   1
    86    38    81   1
    87    39    82   1
    88    41    83   1
    89    41    84   1
    90    43    85   1
    91    43    86   1
    92    44    87   1
    93    45    88   1
    94    45    89   1
    95    46    90   1
    96    47    91   1
    97    48    92   1
    98    48    93   1
    99    50    94   1
   100    50    95   1
@<TRIPOS>SUBSTRUCTURE
     1  TSV      1

