@<TRIPOS>MOLECULE
3su2_ligand_022
    95   100
SMALL
GAST_HUCK
****
This file was generated by PARSER (from files_GN.cpp)

@<TRIPOS>ATOM
      1 C1        -16.5387   -6.0653    9.2901 C.3         1 TSV      -0.0069
      2 F1         -7.9241  -16.4725   11.3254 F           1 TSV      -0.1836
      3 N1         -9.1409   -5.1742    9.8694 N.am        1 TSV      -0.2412
      4 O1         -7.9935   -4.5721    7.9315 O.3         1 TSV      -0.2580
      5 S1        -17.5317   -8.2868   13.5701 S.o2        1 TSV       0.0645
      6 C2        -15.7140   -6.9504   10.2571 C.3         1 TSV       0.1453
      7 N2        -14.6139   -7.6093    9.6216 N.am        1 TSV      -0.2722
      8 O2         -9.5593   -6.3176    7.8325 O.2         1 TSV      -0.3774
      9 C3        -15.5800   -5.4064   10.2884 C.3         1 TSV       0.0105
     10 N3        -16.5361   -7.5260   12.4408 N.am        1 TSV      -0.1550
     11 O3        -11.8851   -5.9403    9.5764 O.2         1 TSV      -0.3942
     12 C4        -16.5865   -7.7187   11.1328 C.2         1 TSV       0.2463
     13 N4         -8.4289  -12.7109    9.2911 N.am        1 TSV      -0.2075
     14 O4        -16.8291   -8.0998   14.9848 O.2         1 TSV      -0.1503
     15 C5        -16.1019   -4.6690   11.4254 C.2         1 TSV      -0.0942
     16 N5        -11.2768   -8.0014   10.1275 N.am        1 TSV      -0.2469
     17 O5         -9.0061  -10.6133    8.4041 O.2         1 TSV      -0.3166
     18 C6         -6.4074   -3.4821    6.4985 C.3         1 TSV      -0.0320
     19 O6        -17.5075   -9.8639   13.3569 O.2         1 TSV      -0.1503
     20 C7         -6.9906   -5.9164    6.0879 C.3         1 TSV      -0.0320
     21 O7        -13.7008   -8.4999   11.4447 O.2         1 TSV      -0.3947
     22 C8         -8.7254   -4.0757    5.6403 C.3         1 TSV      -0.0320
     23 O8        -10.1297  -11.4220   10.3044 O.3         1 TSV      -0.2338
     24 C9         -7.5511   -4.5362    6.5533 C.3         1 TSV       0.0905
     25 O9        -17.3279   -8.5498   10.6278 O.2         1 TSV      -0.3402
     26 C10       -15.3516   -4.2235   12.4493 C.2         1 TSV      -0.0985
     27 C11       -13.6501   -8.2782   10.2414 C.2         1 TSV       0.2014
     28 C12        -7.4375  -12.9655    8.4043 C.2         1 TSV       0.0391
     29 C13       -13.9052   -4.3490   12.5956 C.3         1 TSV      -0.0365
     30 C14        -5.5440  -16.2215    8.5764 C.ar        1 TSV      -0.0639
     31 C15       -12.4281   -8.6179    9.5125 C.3         1 TSV       0.1363
     32 C16        -5.8633  -14.9461    8.0633 C.ar        1 TSV      -0.0660
     33 C17        -6.2456  -16.7425    9.6865 C.ar        1 TSV      -0.0284
     34 C18       -13.4773   -5.0701   13.9010 C.3         1 TSV      -0.0464
     35 C19       -11.9387   -5.1009   14.1457 C.3         1 TSV      -0.0513
     36 C20        -8.9229   -5.3585    8.5434 C.2         1 TSV       0.3223
     37 C21        -7.2770  -15.9952   10.2975 C.ar        1 TSV       0.1323
     38 C22       -11.0996   -5.9244   13.1208 C.3         1 TSV      -0.0487
     39 C23       -19.2299   -7.6802   13.7170 C.3         1 TSV       0.1004
     40 C24        -6.8960  -14.2153    8.6778 C.ar        1 TSV      -0.0325
     41 C25       -10.4489   -5.1052   11.9575 C.3         1 TSV      -0.0124
     42 C26        -7.5895  -14.7284    9.7704 C.ar        1 TSV       0.0028
     43 C27       -12.1198  -10.1342    9.4769 C.3         1 TSV       0.0206
     44 C28        -9.9391   -5.9777   10.7635 C.3         1 TSV       0.1330
     45 C29       -19.4210   -6.1890   14.0337 C.3         1 TSV      -0.0268
     46 C30       -11.0469  -10.3408   10.5599 C.3         1 TSV       0.1158
     47 C31        -8.5360  -13.7718   10.1255 C.2         1 TSV       0.0402
     48 C32       -19.7913   -6.7303   12.6482 C.3         1 TSV      -0.0268
     49 C33       -11.0700   -6.6706   10.1289 C.2         1 TSV       0.2064
     50 C34       -10.3876   -8.9554   10.7237 C.3         1 TSV       0.0677
     51 C35        -9.1864  -11.5840    9.3329 C.2         1 TSV       0.4317
     52 H1        -17.6016   -5.9103    9.4956 H           1 TSV       0.0300
     53 H2        -16.2093   -6.0267    8.2490 H           1 TSV       0.0300
     54 H3         -8.5741   -4.5126   10.2954 H           1 TSV       0.1899
     55 H4        -14.5013   -7.4536    8.6703 H           1 TSV       0.1841
     56 H5        -14.7137   -4.9803    9.7740 H           1 TSV       0.0435
     57 H6        -15.9096   -6.8688   12.7796 H           1 TSV       0.2148
     58 H7        -17.0801   -4.4887   11.4539 H           1 TSV       0.0452
     59 H8         -6.0032   -3.3989    5.4864 H           1 TSV       0.0260
     60 H9         -5.5954   -3.7675    7.1723 H           1 TSV       0.0260
     61 H10        -6.7733   -2.4985    6.8059 H           1 TSV       0.0260
     62 H11        -6.5479   -5.8361    5.0937 H           1 TSV       0.0260
     63 H12        -7.7741   -6.6721    6.0405 H           1 TSV       0.0260
     64 H13        -6.2225   -6.2653    6.7786 H           1 TSV       0.0260
     65 H14        -8.4036   -4.0077    4.5996 H           1 TSV       0.0260
     66 H15        -9.0890   -3.0947    5.9545 H           1 TSV       0.0260
     67 H16        -9.5586   -4.7774    5.6949 H           1 TSV       0.0260
     68 H17       -15.8282   -3.7324   13.1726 H           1 TSV       0.0450
     69 H18        -7.1231  -12.3479    7.6514 H           1 TSV       0.0373
     70 H19       -13.4861   -3.3406   12.5960 H           1 TSV       0.0388
     71 H20       -13.4673   -4.8884   11.7576 H           1 TSV       0.0388
     72 H21        -4.8004  -16.7709    8.1402 H           1 TSV       0.0607
     73 H22       -12.5005   -8.2754    8.4728 H           1 TSV       0.0803
     74 H23        -5.3587  -14.5643    7.2610 H           1 TSV       0.0580
     75 H24        -6.0040  -17.6686   10.0470 H           1 TSV       0.0604
     76 H25       -13.8572   -6.0963   13.8877 H           1 TSV       0.0285
     77 H26       -13.9386   -4.5604   14.7520 H           1 TSV       0.0285
     78 H27       -11.7858   -5.5463   15.1332 H           1 TSV       0.0267
     79 H28       -11.5637   -4.0777   14.2016 H           1 TSV       0.0267
     80 H29       -11.7365   -6.7155   12.7224 H           1 TSV       0.0267
     81 H30       -10.2857   -6.4218   13.6569 H           1 TSV       0.0267
     82 H31       -19.9607   -8.3294   14.2031 H           1 TSV       0.0559
     83 H32        -9.6034   -4.5470   12.3733 H           1 TSV       0.0312
     84 H33       -11.1564   -4.3670   11.5755 H           1 TSV       0.0312
     85 H34       -11.7218  -10.4064    8.4967 H           1 TSV       0.0342
     86 H35       -13.0016  -10.7529    9.6642 H           1 TSV       0.0342
     87 H36        -9.2292   -6.6862   11.1886 H           1 TSV       0.0799
     88 H37       -18.5260   -5.5642   14.0704 H           1 TSV       0.0285
     89 H38       -20.2689   -5.9428   14.6769 H           1 TSV       0.0285
     90 H39       -11.5617  -10.5857   11.4944 H           1 TSV       0.0673
     91 H40        -9.2041  -13.8738   10.8920 H           1 TSV       0.0367
     92 H41       -20.8640   -6.7990   12.4559 H           1 TSV       0.0285
     93 H42       -19.1261   -6.4165   11.8425 H           1 TSV       0.0285
     94 H43       -10.2408   -8.7486   11.7880 H           1 TSV       0.0553
     95 H44        -9.4203   -8.9161   10.2195 H           1 TSV       0.0553
@<TRIPOS>BOND
     1     6     1   1
     2     9     1   1
     3    37     2   1
     4     3    36  am
     5    44     3   1
     6     4    24   1
     7    36     4   1
     8    10     5  am
     9     5    14   2
    10     5    19   2
    11     5    39   1
    12     7     6   1
    13     6     9   1
    14     6    12   1
    15    27     7  am
    16    36     8   2
    17     9    15   1
    18    12    10  am
    19    49    11   2
    20    12    25   2
    21    13    28   1
    22    13    47   1
    23    51    13  am
    24    15    26   2
    25    31    16   1
    26    16    49  am
    27    16    50   1
    28    51    17   2
    29    24    18   1
    30    24    20   1
    31    27    21   2
    32    24    22   1
    33    46    23   1
    34    23    51   1
    35    26    29   1
    36    31    27   1
    37    28    40   2
    38    29    34   1
    39    32    30  ar
    40    33    30  ar
    41    43    31   1
    42    40    32  ar
    43    37    33  ar
    44    34    35   1
    45    35    38   1
    46    42    37  ar
    47    38    41   1
    48    39    45   1
    49    39    48   1
    50    42    40  ar
    51    41    44   1
    52    47    42   2
    53    43    46   1
    54    44    49   1
    55    45    48   1
    56    46    50   1
    57     1    52   1
    58     1    53   1
    59     3    54   1
    60     7    55   1
    61     9    56   1
    62    10    57   1
    63    15    58   1
    64    18    59   1
    65    18    60   1
    66    18    61   1
    67    20    62   1
    68    20    63   1
    69    20    64   1
    70    22    65   1
    71    22    66   1
    72    22    67   1
    73    26    68   1
    74    28    69   1
    75    29    70   1
    76    29    71   1
    77    30    72   1
    78    31    73   1
    79    32    74   1
    80    33    75   1
    81    34    76   1
    82    34    77   1
    83    35    78   1
    84    35    79   1
    85    38    80   1
    86    38    81   1
    87    39    82   1
    88    41    83   1
    89    41    84   1
    90    43    85   1
    91    43    86   1
    92    44    87   1
    93    45    88   1
    94    45    89   1
    95    46    90   1
    96    47    91   1
    97    48    92   1
    98    48    93   1
    99    50    94   1
   100    50    95   1
@<TRIPOS>SUBSTRUCTURE
     1  TSV      1

