@<TRIPOS>MOLECULE
3su2_ligand_030
    95   100
SMALL
GAST_HUCK
****
This file was generated by PARSER (from files_GN.cpp)

@<TRIPOS>ATOM
      1 C1         -6.4103   -8.2298    5.3200 C.3         1 TSV      -0.0069
      2 F1         -9.6624   -5.3962   14.8268 F           1 TSV      -0.1836
      3 N1        -13.6833   -8.6316    6.6938 N.am        1 TSV      -0.2412
      4 O1        -15.2785   -7.0773    7.3138 O.3         1 TSV      -0.2580
      5 S1         -5.4245  -13.1238    5.4067 S.o2        1 TSV       0.0645
      6 C2         -7.0414   -9.4982    5.9430 C.3         1 TSV       0.1453
      7 N2         -7.8393   -9.2582    7.1070 N.am        1 TSV      -0.2722
      8 O2        -14.8549   -8.9242    8.7252 O.2         1 TSV      -0.3774
      9 C3         -7.6272   -8.8784    4.6480 C.3         1 TSV       0.0105
     10 N3         -6.3836  -11.7374    5.3921 N.am        1 TSV      -0.1550
     11 O3        -10.9249   -8.5779    6.6752 O.2         1 TSV      -0.3942
     12 C4         -6.0864  -10.5941    5.9843 C.2         1 TSV       0.2463
     13 N4        -12.2119   -8.3763   13.0726 N.am        1 TSV      -0.2075
     14 O4         -6.3422  -14.2193    4.7097 O.2         1 TSV      -0.1503
     15 C5         -7.4944   -9.6088    3.4004 C.2         1 TSV      -0.0942
     16 N5        -10.9446   -9.9411    8.4190 N.am        1 TSV      -0.2469
     17 O5        -13.2197  -10.2488   12.0659 O.2         1 TSV      -0.3166
     18 C6        -16.6798   -5.1531    7.1356 C.3         1 TSV      -0.0320
     19 O6         -5.2431  -13.6950    6.8797 O.2         1 TSV      -0.1503
     20 C7        -17.5610   -7.2819    8.2142 C.3         1 TSV      -0.0320
     21 O7         -8.7361  -11.2840    7.2327 O.2         1 TSV      -0.3947
     22 C8        -15.7774   -5.8621    9.4031 C.3         1 TSV      -0.0320
     23 O8        -10.9984   -9.6893   11.5419 O.3         1 TSV      -0.2338
     24 C9        -16.3116   -6.3702    8.0311 C.3         1 TSV       0.0905
     25 O9         -5.0691  -10.4536    6.6506 O.2         1 TSV      -0.3402
     26 C10        -8.4554  -10.3905    2.8753 C.2         1 TSV      -0.0985
     27 C11        -8.6513  -10.1426    7.6705 C.2         1 TSV       0.2014
     28 C12       -13.3081   -7.9621   13.7521 C.2         1 TSV       0.0391
     29 C13        -9.7901  -10.6227    3.4172 C.3         1 TSV      -0.0365
     30 C14       -13.0582   -5.0209   16.1004 C.ar        1 TSV      -0.0639
     31 C15        -9.5509   -9.7407    8.7508 C.3         1 TSV       0.1363
     32 C16       -13.7140   -6.0667   15.4172 C.ar        1 TSV      -0.0660
     33 C17       -11.6772   -4.7935   15.9040 C.ar        1 TSV      -0.0284
     34 C18       -10.1006  -12.1250    3.6513 C.3         1 TSV      -0.0464
     35 C19       -11.5676  -12.4335    4.0749 C.3         1 TSV      -0.0513
     36 C20       -14.6074   -8.2257    7.5925 C.2         1 TSV       0.3223
     37 C21       -10.9388   -5.5954   15.0066 C.ar        1 TSV       0.1323
     38 C22       -12.0087  -11.8721    5.4593 C.3         1 TSV      -0.0487
     39 C23        -3.8851  -13.1161    4.4567 C.3         1 TSV       0.1004
     40 C24       -12.9650   -6.8663   14.5355 C.ar        1 TSV      -0.0325
     41 C25       -12.7339  -10.4927    5.4099 C.3         1 TSV      -0.0124
     42 C26       -11.6101   -6.6264   14.3239 C.ar        1 TSV       0.0028
     43 C27        -9.3063  -10.5667   10.0414 C.3         1 TSV       0.0206
     44 C28       -12.8535   -9.7972    6.8024 C.3         1 TSV       0.1330
     45 C29        -3.4101  -11.8104    3.8011 C.3         1 TSV      -0.0268
     46 C30       -10.7100  -10.7659   10.6340 C.3         1 TSV       0.1158
     47 C31       -11.1762   -7.5675   13.3983 C.2         1 TSV       0.0402
     48 C32        -2.7037  -12.3375    5.0557 C.3         1 TSV      -0.0268
     49 C33       -11.5403   -9.4096    7.3350 C.2         1 TSV       0.2064
     50 C34       -11.6092  -10.7682    9.3810 C.3         1 TSV       0.0677
     51 C35       -12.1485   -9.4334   12.2249 C.2         1 TSV       0.4317
     52 H1         -5.4719   -8.3261    4.7660 H           1 TSV       0.0300
     53 H2         -6.6126   -7.2837    5.8277 H           1 TSV       0.0300
     54 H3        -13.5438   -8.0602    5.9218 H           1 TSV       0.1899
     55 H4         -7.8455   -8.3565    7.4639 H           1 TSV       0.1841
     56 H5         -8.5144   -8.2484    4.7581 H           1 TSV       0.0435
     57 H6         -7.2299  -11.7953    4.9222 H           1 TSV       0.2148
     58 H7         -6.6365   -9.5294    2.9046 H           1 TSV       0.0452
     59 H8        -17.4668   -4.5530    7.5978 H           1 TSV       0.0260
     60 H9        -17.0320   -5.4903    6.1581 H           1 TSV       0.0260
     61 H10       -15.8064   -4.5157    6.9798 H           1 TSV       0.0260
     62 H11       -18.3905   -6.7199    8.6490 H           1 TSV       0.0260
     63 H12       -17.3372   -8.1216    8.8739 H           1 TSV       0.0260
     64 H13       -17.8813   -7.6828    7.2499 H           1 TSV       0.0260
     65 H14       -16.5231   -5.2373    9.9000 H           1 TSV       0.0260
     66 H15       -14.8698   -5.2712    9.2613 H           1 TSV       0.0260
     67 H16       -15.5398   -6.6968   10.0638 H           1 TSV       0.0260
     68 H17        -8.2480  -10.8347    2.0091 H           1 TSV       0.0450
     69 H18       -14.2422   -8.3768   13.7083 H           1 TSV       0.0373
     70 H19       -10.5126  -10.2174    2.7047 H           1 TSV       0.0388
     71 H20        -9.9286  -10.1023    4.3632 H           1 TSV       0.0388
     72 H21       -13.5839   -4.4272   16.7458 H           1 TSV       0.0607
     73 H22        -9.4103   -8.6797    8.9897 H           1 TSV       0.0803
     74 H23       -14.7104   -6.2403   15.5620 H           1 TSV       0.0580
     75 H24       -11.2107   -4.0468   16.4210 H           1 TSV       0.0604
     76 H25        -9.4207  -12.5164    4.4139 H           1 TSV       0.0285
     77 H26        -9.9030  -12.6734    2.7250 H           1 TSV       0.0285
     78 H27       -11.6605  -13.5229    4.1143 H           1 TSV       0.0267
     79 H28       -12.2525  -12.0887    3.2959 H           1 TSV       0.0267
     80 H29       -11.1344  -11.8196    6.1083 H           1 TSV       0.0267
     81 H30       -12.6982  -12.5849    5.9210 H           1 TSV       0.0267
     82 H31        -3.5844  -14.0409    3.9597 H           1 TSV       0.0559
     83 H32       -13.7399  -10.6588    5.0127 H           1 TSV       0.0312
     84 H33       -12.2302   -9.8209    4.7138 H           1 TSV       0.0312
     85 H34        -8.6361  -10.0440   10.7295 H           1 TSV       0.0342
     86 H35        -8.8751  -11.5508    9.8284 H           1 TSV       0.0342
     87 H36       -13.3525  -10.5229    7.4471 H           1 TSV       0.0799
     88 H37        -4.0116  -10.9136    3.9562 H           1 TSV       0.0285
     89 H38        -2.8459  -11.9186    2.8731 H           1 TSV       0.0285
     90 H39       -10.7759  -11.7158   11.1744 H           1 TSV       0.0673
     91 H40       -10.2164   -7.6427   13.0519 H           1 TSV       0.0367
     92 H41        -1.7130  -12.7628    4.8834 H           1 TSV       0.0285
     93 H42        -2.8841  -11.7639    5.9664 H           1 TSV       0.0285
     94 H43       -11.7144  -11.7821    8.9842 H           1 TSV       0.0553
     95 H44       -12.5954  -10.3808    9.6376 H           1 TSV       0.0553
@<TRIPOS>BOND
     1     6     1   1
     2     9     1   1
     3    37     2   1
     4     3    36  am
     5    44     3   1
     6     4    24   1
     7    36     4   1
     8    10     5  am
     9     5    14   2
    10     5    19   2
    11     5    39   1
    12     7     6   1
    13     6     9   1
    14     6    12   1
    15    27     7  am
    16    36     8   2
    17     9    15   1
    18    12    10  am
    19    49    11   2
    20    12    25   2
    21    13    28   1
    22    13    47   1
    23    51    13  am
    24    15    26   2
    25    31    16   1
    26    16    49  am
    27    16    50   1
    28    51    17   2
    29    24    18   1
    30    24    20   1
    31    27    21   2
    32    24    22   1
    33    46    23   1
    34    23    51   1
    35    26    29   1
    36    31    27   1
    37    28    40   2
    38    29    34   1
    39    32    30  ar
    40    33    30  ar
    41    43    31   1
    42    40    32  ar
    43    37    33  ar
    44    34    35   1
    45    35    38   1
    46    42    37  ar
    47    38    41   1
    48    39    45   1
    49    39    48   1
    50    42    40  ar
    51    41    44   1
    52    47    42   2
    53    43    46   1
    54    44    49   1
    55    45    48   1
    56    46    50   1
    57     1    52   1
    58     1    53   1
    59     3    54   1
    60     7    55   1
    61     9    56   1
    62    10    57   1
    63    15    58   1
    64    18    59   1
    65    18    60   1
    66    18    61   1
    67    20    62   1
    68    20    63   1
    69    20    64   1
    70    22    65   1
    71    22    66   1
    72    22    67   1
    73    26    68   1
    74    28    69   1
    75    29    70   1
    76    29    71   1
    77    30    72   1
    78    31    73   1
    79    32    74   1
    80    33    75   1
    81    34    76   1
    82    34    77   1
    83    35    78   1
    84    35    79   1
    85    38    80   1
    86    38    81   1
    87    39    82   1
    88    41    83   1
    89    41    84   1
    90    43    85   1
    91    43    86   1
    92    44    87   1
    93    45    88   1
    94    45    89   1
    95    46    90   1
    96    47    91   1
    97    48    92   1
    98    48    93   1
    99    50    94   1
   100    50    95   1
@<TRIPOS>SUBSTRUCTURE
     1  TSV      1

