@<TRIPOS>MOLECULE
3su2_ligand_028
    95   100
SMALL
GAST_HUCK
****
This file was generated by PARSER (from files_GN.cpp)

@<TRIPOS>ATOM
      1 C1        -16.1300   -4.6518    9.8649 C.3         1 TSV      -0.0069
      2 F1        -15.2282  -17.3887   14.3899 F           1 TSV      -0.1836
      3 N1        -10.1768   -7.1401   13.5819 N.am        1 TSV      -0.2412
      4 O1         -8.3349   -6.2936   12.4878 O.3         1 TSV      -0.2580
      5 S1        -19.4982   -6.2395   13.2984 S.o2        1 TSV       0.0645
      6 C2        -16.3067   -5.7519   10.9412 C.3         1 TSV       0.1453
      7 N2        -15.4732   -6.9069   10.7567 N.am        1 TSV      -0.2722
      8 O2        -10.3433   -5.0604   12.4532 O.2         1 TSV      -0.3774
      9 C3        -15.4767   -4.4726   11.2482 C.3         1 TSV       0.0105
     10 N3        -17.9795   -5.9179   12.6461 N.am        1 TSV      -0.1550
     11 O3        -12.5557   -6.5659   12.1206 O.2         1 TSV      -0.3942
     12 C4        -17.6838   -5.9276   11.3529 C.2         1 TSV       0.2463
     13 N4        -12.9093  -14.1863   12.6795 N.am        1 TSV      -0.2075
     14 O4        -20.6309   -5.7011   12.3212 O.2         1 TSV      -0.1503
     15 C5        -15.9949   -3.4386   12.1254 C.2         1 TSV      -0.0942
     16 N5        -13.1669   -8.6182   12.6477 N.am        1 TSV      -0.2469
     17 O5        -11.9388  -12.2154   11.8501 O.2         1 TSV      -0.3166
     18 C6         -6.0736   -6.1787   11.7515 C.3         1 TSV      -0.0320
     19 O6        -19.6436   -5.3249   14.5986 O.2         1 TSV      -0.1503
     20 C7         -7.9667   -5.4481   10.2121 C.3         1 TSV      -0.0320
     21 O7        -15.8070   -7.8015   12.7727 O.2         1 TSV      -0.3947
     22 C8         -7.3557   -4.0343   12.2511 C.3         1 TSV      -0.0320
     23 O8        -13.9877  -12.1228   12.9996 O.3         1 TSV      -0.2338
     24 C9         -7.4594   -5.4776   11.6839 C.3         1 TSV       0.0905
     25 O9        -18.5266   -6.1715   10.4838 O.2         1 TSV      -0.3402
     26 C10       -15.5580   -3.2007   13.3740 C.2         1 TSV      -0.0985
     27 C11       -15.2111   -7.8142   11.6984 C.2         1 TSV       0.2014
     28 C12       -11.9223  -15.0123   12.2662 C.2         1 TSV       0.0391
     29 C13       -14.5323   -3.9365   14.1008 C.3         1 TSV      -0.0365
     30 C14       -12.1468  -18.7104   12.9575 C.ar        1 TSV      -0.0639
     31 C15       -14.0801   -8.7300   11.5267 C.3         1 TSV       0.1363
     32 C16       -11.5573  -17.5319   12.4568 C.ar        1 TSV      -0.0660
     33 C17       -13.3993  -18.6635   13.6130 C.ar        1 TSV      -0.0284
     34 C18       -15.0513   -4.4592   15.4662 C.3         1 TSV      -0.0464
     35 C19       -13.9911   -5.1720   16.3543 C.3         1 TSV      -0.0513
     36 C20        -9.6349   -6.1457   12.8409 C.2         1 TSV       0.3223
     37 C21       -14.0740  -17.4351   13.7806 C.ar        1 TSV       0.1323
     38 C22       -13.3313   -6.4334   15.7216 C.3         1 TSV      -0.0487
     39 C23       -19.8277   -7.9620   13.7475 C.3         1 TSV       0.1004
     40 C24       -12.2396  -16.3140   12.6321 C.ar        1 TSV      -0.0325
     41 C25       -11.9821   -6.1525   14.9909 C.3         1 TSV      -0.0124
     42 C26       -13.4695  -16.2644   13.2830 C.ar        1 TSV       0.0028
     43 C27       -14.5163  -10.2129   11.4884 C.3         1 TSV       0.0206
     44 C28       -11.5309   -7.2944   14.0278 C.3         1 TSV       0.1330
     45 C29       -19.1314   -9.0527   12.9142 C.3         1 TSV      -0.0268
     46 C30       -14.2766  -10.7179   12.9196 C.3         1 TSV       0.1158
     47 C31       -13.8590  -14.9298   13.2989 C.2         1 TSV       0.0402
     48 C32       -18.6866   -8.7918   14.3602 C.3         1 TSV      -0.0268
     49 C33       -12.4417   -7.5104   12.8932 C.2         1 TSV       0.2064
     50 C34       -13.1858   -9.7826   13.4866 C.3         1 TSV       0.0677
     51 C35       -12.9438  -12.8431   12.5080 C.2         1 TSV       0.4317
     52 H1        -16.9952   -4.0175    9.6447 H           1 TSV       0.0300
     53 H2        -15.4521   -4.8972    9.0412 H           1 TSV       0.0300
     54 H3         -9.5827   -7.8645   13.8256 H           1 TSV       0.1899
     55 H4        -14.9520   -6.9414    9.9307 H           1 TSV       0.1841
     56 H5        -14.3860   -4.5402   11.1578 H           1 TSV       0.0435
     57 H6        -17.2466   -5.7606   13.2716 H           1 TSV       0.2148
     58 H7        -16.6959   -2.8326   11.7666 H           1 TSV       0.0452
     59 H8         -5.3332   -5.6291   11.1687 H           1 TSV       0.0260
     60 H9         -6.1360   -7.1965   11.3580 H           1 TSV       0.0260
     61 H10        -5.7246   -6.2334   12.7856 H           1 TSV       0.0260
     62 H11        -7.2393   -4.9556    9.5594 H           1 TSV       0.0260
     63 H12        -8.9117   -4.9063   10.1346 H           1 TSV       0.0260
     64 H13        -8.1308   -6.4638    9.8449 H           1 TSV       0.0260
     65 H14        -6.6229   -3.4514   11.6882 H           1 TSV       0.0260
     66 H15        -7.0551   -4.0708   13.2991 H           1 TSV       0.0260
     67 H16        -8.3104   -3.5111   12.1870 H           1 TSV       0.0260
     68 H17       -15.9520   -2.4177   13.8427 H           1 TSV       0.0450
     69 H18       -11.0700  -14.7373   11.7670 H           1 TSV       0.0373
     70 H19       -13.6900   -3.2606   14.2657 H           1 TSV       0.0388
     71 H20       -14.1792   -4.7855   13.5203 H           1 TSV       0.0388
     72 H21       -11.6635  -19.6040   12.8461 H           1 TSV       0.0607
     73 H22       -13.5422   -8.5078   10.5898 H           1 TSV       0.0803
     74 H23       -10.6510  -17.5566   11.9829 H           1 TSV       0.0580
     75 H24       -13.8130  -19.5272   13.9692 H           1 TSV       0.0604
     76 H25       -15.8767   -5.1540   15.2856 H           1 TSV       0.0285
     77 H26       -15.4443   -3.6156   16.0404 H           1 TSV       0.0285
     78 H27       -14.5039   -5.4856   17.2683 H           1 TSV       0.0267
     79 H28       -13.2203   -4.4547   16.6530 H           1 TSV       0.0267
     80 H29       -14.0455   -6.8981   15.0385 H           1 TSV       0.0267
     81 H30       -13.1364   -7.1649   16.5137 H           1 TSV       0.0267
     82 H31       -20.8287   -8.2155   14.1090 H           1 TSV       0.0559
     83 H32       -11.2101   -6.0161   15.7552 H           1 TSV       0.0312
     84 H33       -12.0411   -5.2186   14.4341 H           1 TSV       0.0312
     85 H34       -13.8818  -10.7550   10.7852 H           1 TSV       0.0342
     86 H35       -15.5586  -10.3509   11.1807 H           1 TSV       0.0342
     87 H36       -11.4994   -8.1893   14.6477 H           1 TSV       0.0799
     88 H37       -18.4123   -8.7402   12.1545 H           1 TSV       0.0285
     89 H38       -19.6914   -9.9778   12.7708 H           1 TSV       0.0285
     90 H39       -15.1978  -10.5569   13.4880 H           1 TSV       0.0673
     91 H40       -14.7262  -14.5793   13.7112 H           1 TSV       0.0367
     92 H41       -18.9953   -9.5391   15.0930 H           1 TSV       0.0285
     93 H42       -17.7332   -8.2782   14.4940 H           1 TSV       0.0285
     94 H43       -13.4367   -9.5270   14.5213 H           1 TSV       0.0553
     95 H44       -12.2022  -10.2541   13.4651 H           1 TSV       0.0553
@<TRIPOS>BOND
     1     6     1   1
     2     9     1   1
     3    37     2   1
     4     3    36  am
     5    44     3   1
     6     4    24   1
     7    36     4   1
     8    10     5  am
     9     5    14   2
    10     5    19   2
    11     5    39   1
    12     7     6   1
    13     6     9   1
    14     6    12   1
    15    27     7  am
    16    36     8   2
    17     9    15   1
    18    12    10  am
    19    49    11   2
    20    12    25   2
    21    13    28   1
    22    13    47   1
    23    51    13  am
    24    15    26   2
    25    31    16   1
    26    16    49  am
    27    16    50   1
    28    51    17   2
    29    24    18   1
    30    24    20   1
    31    27    21   2
    32    24    22   1
    33    46    23   1
    34    23    51   1
    35    26    29   1
    36    31    27   1
    37    28    40   2
    38    29    34   1
    39    32    30  ar
    40    33    30  ar
    41    43    31   1
    42    40    32  ar
    43    37    33  ar
    44    34    35   1
    45    35    38   1
    46    42    37  ar
    47    38    41   1
    48    39    45   1
    49    39    48   1
    50    42    40  ar
    51    41    44   1
    52    47    42   2
    53    43    46   1
    54    44    49   1
    55    45    48   1
    56    46    50   1
    57     1    52   1
    58     1    53   1
    59     3    54   1
    60     7    55   1
    61     9    56   1
    62    10    57   1
    63    15    58   1
    64    18    59   1
    65    18    60   1
    66    18    61   1
    67    20    62   1
    68    20    63   1
    69    20    64   1
    70    22    65   1
    71    22    66   1
    72    22    67   1
    73    26    68   1
    74    28    69   1
    75    29    70   1
    76    29    71   1
    77    30    72   1
    78    31    73   1
    79    32    74   1
    80    33    75   1
    81    34    76   1
    82    34    77   1
    83    35    78   1
    84    35    79   1
    85    38    80   1
    86    38    81   1
    87    39    82   1
    88    41    83   1
    89    41    84   1
    90    43    85   1
    91    43    86   1
    92    44    87   1
    93    45    88   1
    94    45    89   1
    95    46    90   1
    96    47    91   1
    97    48    92   1
    98    48    93   1
    99    50    94   1
   100    50    95   1
@<TRIPOS>SUBSTRUCTURE
     1  TSV      1

