@<TRIPOS>MOLECULE
3su2_ligand_036
    95   100
SMALL
GAST_HUCK
****
This file was generated by PARSER (from files_GN.cpp)

@<TRIPOS>ATOM
      1 C1        -15.7619   -3.2295    9.4800 C.3         1 TSV      -0.0069
      2 F1        -15.8822  -16.9136    8.8892 F           1 TSV      -0.1836
      3 N1        -10.1390   -7.5837   11.8659 N.am        1 TSV      -0.2412
      4 O1         -8.1266   -6.5212   11.5368 O.3         1 TSV      -0.2580
      5 S1        -19.3532   -5.5301   12.1582 S.o2        1 TSV       0.0645
      6 C2        -16.0396   -4.6191   10.0987 C.3         1 TSV       0.1453
      7 N2        -15.3236   -5.6868    9.4737 N.am        1 TSV      -0.2722
      8 O2        -10.0816   -5.2162   11.7306 O.2         1 TSV      -0.3774
      9 C3        -15.1196   -3.6018   10.8236 C.3         1 TSV       0.0105
     10 N3        -17.7826   -5.2798   11.6037 N.am        1 TSV      -0.1550
     11 O3        -12.3464   -6.2978   10.6311 O.2         1 TSV      -0.3942
     12 C4        -17.4459   -4.8100   10.4131 C.2         1 TSV       0.2463
     13 N4        -13.5699  -13.3474    8.1967 N.am        1 TSV      -0.2075
     14 O4        -20.3452   -4.5035   11.4583 O.2         1 TSV      -0.1503
     15 C5        -15.5674   -2.9459   12.0386 C.2         1 TSV      -0.0942
     16 N5        -13.2886   -8.2784   10.4103 N.am        1 TSV      -0.2469
     17 O5        -12.5468  -11.2402    8.0523 O.2         1 TSV      -0.3166
     18 C6         -5.7948   -6.3103   11.8516 C.3         1 TSV      -0.0320
     19 O6        -19.3596   -5.0776   13.6838 O.2         1 TSV      -0.1503
     20 C7         -6.9245   -5.2768    9.8016 C.3         1 TSV      -0.0320
     21 O7        -15.8313   -7.2696   10.9538 O.2         1 TSV      -0.3947
     22 C8         -7.2651   -4.2434   12.1125 C.3         1 TSV      -0.0320
     23 O8        -14.4824  -11.5126    9.3616 O.3         1 TSV      -0.2338
     24 C9         -7.0589   -5.5708   11.3250 C.3         1 TSV       0.0905
     25 O9        -18.2740   -4.5980    9.5376 O.2         1 TSV      -0.3402
     26 C10       -15.2195   -3.3216   13.2810 C.2         1 TSV      -0.0985
     27 C11       -15.2006   -6.9109    9.9638 C.2         1 TSV       0.2014
     28 C12       -12.6892  -13.9800    7.3852 C.2         1 TSV       0.0391
     29 C13       -14.3047   -4.3991   13.6474 C.3         1 TSV      -0.0365
     30 C14       -13.0975  -17.6544    6.6570 C.ar        1 TSV      -0.0639
     31 C15       -14.2138   -7.8243    9.3942 C.3         1 TSV       0.1363
     32 C16       -12.4835  -16.3878    6.5669 C.ar        1 TSV      -0.0660
     33 C17       -14.2550  -17.8349    7.4486 C.ar        1 TSV      -0.0284
     34 C18       -14.9363   -5.4507   14.5990 C.3         1 TSV      -0.0464
     35 C19       -13.9555   -6.5548   15.0987 C.3         1 TSV      -0.0513
     36 C20        -9.4703   -6.4206   11.6970 C.2         1 TSV       0.3223
     37 C21       -14.8134  -16.7505    8.1600 C.ar        1 TSV       0.1323
     38 C22       -13.3789   -7.5088   14.0073 C.3         1 TSV      -0.0487
     39 C23       -19.9635   -7.2172   11.9543 C.3         1 TSV       0.1004
     40 C24       -13.0515  -15.3168    7.2791 C.ar        1 TSV      -0.0325
     41 C25       -11.9775   -7.0887   13.4735 C.3         1 TSV      -0.0124
     42 C26       -14.1915  -15.4915    8.0592 C.ar        1 TSV       0.0028
     43 C27       -14.8471   -9.0980    8.7901 C.3         1 TSV       0.0206
     44 C28       -11.5345   -7.7965   12.1519 C.3         1 TSV       0.1330
     45 C29       -19.9140   -8.1830   13.1477 C.3         1 TSV      -0.0268
     46 C30       -14.6442  -10.1758    9.8695 C.3         1 TSV       0.1158
     47 C31       -14.4874  -14.2519    8.6158 C.2         1 TSV       0.0402
     48 C32       -21.2538   -7.5844   12.7043 C.3         1 TSV      -0.0268
     49 C33       -12.3977   -7.4625   11.0079 C.2         1 TSV       0.2064
     50 C34       -13.4596   -9.6678   10.7222 C.3         1 TSV       0.0677
     51 C35       -13.5344  -12.0349    8.5328 C.2         1 TSV       0.4317
     52 H1        -16.5491   -2.4722    9.5292 H           1 TSV       0.0300
     53 H2        -15.0688   -3.1919    8.6349 H           1 TSV       0.0300
     54 H3         -9.5938   -8.3850   11.8127 H           1 TSV       0.1899
     55 H4        -14.7902   -5.4646    8.6942 H           1 TSV       0.1841
     56 H5        -14.0393   -3.7476   10.7091 H           1 TSV       0.0435
     57 H6        -17.0638   -5.4792   12.2241 H           1 TSV       0.2148
     58 H7        -16.1605   -2.1594   11.9449 H           1 TSV       0.0452
     59 H8         -4.8953   -5.7102   11.7036 H           1 TSV       0.0260
     60 H9         -5.6626   -7.2648   11.3347 H           1 TSV       0.0260
     61 H10        -5.8982   -6.5210   12.9194 H           1 TSV       0.0260
     62 H11        -6.1072   -4.5776    9.6171 H           1 TSV       0.0260
     63 H12        -7.8473   -4.8392    9.4165 H           1 TSV       0.0260
     64 H13        -6.7232   -6.1916    9.2460 H           1 TSV       0.0260
     65 H14        -6.3776   -3.6234   12.0527 H           1 TSV       0.0260
     66 H15        -7.4756   -4.4524   13.1600 H           1 TSV       0.0260
     67 H16        -8.0889   -3.6652   11.7002 H           1 TSV       0.0260
     68 H17       -15.5918   -2.7819   14.0348 H           1 TSV       0.0450
     69 H18       -11.8835  -13.5573    6.9165 H           1 TSV       0.0373
     70 H19       -13.4430   -3.9441   14.1425 H           1 TSV       0.0388
     71 H20       -13.9464   -4.9196   12.7642 H           1 TSV       0.0388
     72 H21       -12.7031  -18.4465    6.1447 H           1 TSV       0.0607
     73 H22       -13.6535   -7.3236    8.5938 H           1 TSV       0.0803
     74 H23       -11.6481  -16.2508    5.9957 H           1 TSV       0.0580
     75 H24       -14.6898  -18.7593    7.5026 H           1 TSV       0.0604
     76 H25       -15.7827   -5.9277   14.0982 H           1 TSV       0.0285
     77 H26       -15.3272   -4.9319   15.4804 H           1 TSV       0.0285
     78 H27       -14.5049   -7.1695   15.8192 H           1 TSV       0.0267
     79 H28       -13.1407   -6.0825   15.6561 H           1 TSV       0.0267
     80 H29       -14.0921   -7.5721   13.1866 H           1 TSV       0.0267
     81 H30       -13.2861   -8.5152   14.4277 H           1 TSV       0.0267
     82 H31       -19.8703   -7.6809   10.9719 H           1 TSV       0.0559
     83 H32       -11.2429   -7.3119   14.2535 H           1 TSV       0.0312
     84 H33       -11.9568   -6.0118   13.3227 H           1 TSV       0.0312
     85 H34       -14.3195   -9.3694    7.8749 H           1 TSV       0.0342
     86 H35       -15.9053   -8.9738    8.5417 H           1 TSV       0.0342
     87 H36       -11.5937   -8.8681   12.3525 H           1 TSV       0.0799
     88 H37       -19.5225   -7.7960   14.0900 H           1 TSV       0.0285
     89 H38       -19.7726   -9.2392   12.9054 H           1 TSV       0.0285
     90 H39       -15.5412  -10.1894   10.4999 H           1 TSV       0.0673
     91 H40       -15.2761  -14.0676    9.2418 H           1 TSV       0.0367
     92 H41       -21.9272   -8.2743   12.1894 H           1 TSV       0.0285
     93 H42       -21.6732   -6.8384   13.3832 H           1 TSV       0.0285
     94 H43       -13.6928   -9.8100   11.7808 H           1 TSV       0.0553
     95 H44       -12.5447  -10.2135   10.4858 H           1 TSV       0.0553
@<TRIPOS>BOND
     1     6     1   1
     2     9     1   1
     3    37     2   1
     4     3    36  am
     5    44     3   1
     6     4    24   1
     7    36     4   1
     8    10     5  am
     9     5    14   2
    10     5    19   2
    11     5    39   1
    12     7     6   1
    13     6     9   1
    14     6    12   1
    15    27     7  am
    16    36     8   2
    17     9    15   1
    18    12    10  am
    19    49    11   2
    20    12    25   2
    21    13    28   1
    22    13    47   1
    23    51    13  am
    24    15    26   2
    25    31    16   1
    26    16    49  am
    27    16    50   1
    28    51    17   2
    29    24    18   1
    30    24    20   1
    31    27    21   2
    32    24    22   1
    33    46    23   1
    34    23    51   1
    35    26    29   1
    36    31    27   1
    37    28    40   2
    38    29    34   1
    39    32    30  ar
    40    33    30  ar
    41    43    31   1
    42    40    32  ar
    43    37    33  ar
    44    34    35   1
    45    35    38   1
    46    42    37  ar
    47    38    41   1
    48    39    45   1
    49    39    48   1
    50    42    40  ar
    51    41    44   1
    52    47    42   2
    53    43    46   1
    54    44    49   1
    55    45    48   1
    56    46    50   1
    57     1    52   1
    58     1    53   1
    59     3    54   1
    60     7    55   1
    61     9    56   1
    62    10    57   1
    63    15    58   1
    64    18    59   1
    65    18    60   1
    66    18    61   1
    67    20    62   1
    68    20    63   1
    69    20    64   1
    70    22    65   1
    71    22    66   1
    72    22    67   1
    73    26    68   1
    74    28    69   1
    75    29    70   1
    76    29    71   1
    77    30    72   1
    78    31    73   1
    79    32    74   1
    80    33    75   1
    81    34    76   1
    82    34    77   1
    83    35    78   1
    84    35    79   1
    85    38    80   1
    86    38    81   1
    87    39    82   1
    88    41    83   1
    89    41    84   1
    90    43    85   1
    91    43    86   1
    92    44    87   1
    93    45    88   1
    94    45    89   1
    95    46    90   1
    96    47    91   1
    97    48    92   1
    98    48    93   1
    99    50    94   1
   100    50    95   1
@<TRIPOS>SUBSTRUCTURE
     1  TSV      1

