@<TRIPOS>MOLECULE
3su2_ligand_004
    95   100
SMALL
GAST_HUCK
****
This file was generated by PARSER (from files_GN.cpp)

@<TRIPOS>ATOM
      1 C1        -11.8172   -6.1859   17.0408 C.3         1 TSV      -0.0069
      2 F1        -15.7297  -16.8635    9.5232 F           1 TSV      -0.1836
      3 N1        -18.2185   -9.3886   14.8948 N.am        1 TSV      -0.2412
      4 O1        -19.1554  -10.9385   16.3136 O.3         1 TSV      -0.2580
      5 S1         -9.9315   -5.4573   12.1570 S.o2        1 TSV       0.0645
      6 C2        -11.8524   -6.5677   15.5418 C.3         1 TSV       0.1453
      7 N2        -12.1976   -7.9455   15.3178 N.am        1 TSV      -0.2722
      8 O2        -17.8803  -11.6820   14.4635 O.2         1 TSV      -0.3774
      9 C3        -13.0252   -5.7762   16.1872 C.3         1 TSV       0.0105
     10 N3        -10.9110   -6.1292   13.3535 N.am        1 TSV      -0.1550
     11 O3        -15.6997   -8.5415   15.5323 O.2         1 TSV      -0.3942
     12 C4        -10.8966   -5.8810   14.6547 C.2         1 TSV       0.2463
     13 N4        -12.6267  -14.1241   10.7103 N.am        1 TSV      -0.2075
     14 O4         -8.6254   -6.3425   11.9556 O.2         1 TSV      -0.1503
     15 C5        -13.2382   -4.3706   15.8698 C.2         1 TSV      -0.0942
     16 N5        -14.9080   -9.7427   13.8545 N.am        1 TSV      -0.2469
     17 O5        -11.2174  -12.3639   11.3823 O.2         1 TSV      -0.3166
     18 C6        -20.1674  -11.7060   18.3212 C.3         1 TSV      -0.0320
     19 O6         -9.4564   -4.0006   12.5810 O.2         1 TSV      -0.1503
     20 C7        -20.7079  -12.8093   16.0941 C.3         1 TSV      -0.0320
     21 O7        -13.3629   -7.6109   13.4642 O.2         1 TSV      -0.3947
     22 C8        -18.4100  -13.1472   17.1909 C.3         1 TSV      -0.0320
     23 O8        -13.5423  -12.1480   11.6084 O.3         1 TSV      -0.2338
     24 C9        -19.5881  -12.1552   16.9504 C.3         1 TSV       0.0905
     25 O9        -10.0864   -5.0866   15.1172 O.2         1 TSV      -0.3402
     26 C10       -14.2806   -3.8876   15.1657 C.2         1 TSV      -0.0985
     27 C11       -12.9860   -8.3800   14.3421 C.2         1 TSV       0.2014
     28 C12       -11.6324  -14.9928   10.4094 C.2         1 TSV       0.0391
     29 C13       -15.4200   -4.6330   14.6393 C.3         1 TSV      -0.0365
     30 C14       -12.4661  -18.4344    9.1134 C.ar        1 TSV      -0.0639
     31 C15       -13.5584   -9.7270   14.3814 C.3         1 TSV       0.1363
     32 C16       -11.6143  -17.3910    9.5343 C.ar        1 TSV      -0.0660
     33 C17       -13.8676  -18.2545    9.1058 C.ar        1 TSV      -0.0284
     34 C18       -15.5308   -4.5277   13.0952 C.3         1 TSV      -0.0464
     35 C19       -16.7715   -5.2131   12.4492 C.3         1 TSV      -0.0513
     36 C20       -18.4242  -10.6862   15.1990 C.2         1 TSV       0.3223
     37 C21       -14.4352  -17.0323    9.5298 C.ar        1 TSV       0.1323
     38 C22       -16.7668   -6.7718   12.4845 C.3         1 TSV      -0.0487
     39 C23       -10.7383   -5.2217   10.5490 C.3         1 TSV       0.1004
     40 C24       -12.1925  -16.1785    9.9481 C.ar        1 TSV      -0.0325
     41 C25       -17.5961   -7.3946   13.6441 C.3         1 TSV      -0.0124
     42 C26       -13.5743  -16.0037    9.9562 C.ar        1 TSV       0.0028
     43 C27       -12.7857  -10.7538   13.5250 C.3         1 TSV       0.0206
     44 C28       -17.2817   -8.8990   13.9276 C.3         1 TSV       0.1330
     45 C29       -11.8747   -6.1736   10.1477 C.3         1 TSV      -0.0268
     46 C30       -13.5688  -10.8424   12.2039 C.3         1 TSV       0.1158
     47 C31       -13.8114  -14.7220   10.4408 C.2         1 TSV       0.0402
     48 C32       -12.1892   -4.7235   10.5419 C.3         1 TSV      -0.0268
     49 C33       -15.9214   -9.0896   14.4549 C.2         1 TSV       0.2064
     50 C34       -15.0032  -10.4365   12.6009 C.3         1 TSV       0.0677
     51 C35       -12.4611  -12.8762   11.2149 C.2         1 TSV       0.4317
     52 H1        -11.1877   -5.3585   17.3776 H           1 TSV       0.0300
     53 H2        -12.0142   -6.9934   17.7538 H           1 TSV       0.0300
     54 H3        -18.6827   -8.7301   15.4344 H           1 TSV       0.1899
     55 H4        -11.9941   -8.5767   16.0276 H           1 TSV       0.1841
     56 H5        -13.9004   -6.3409   16.5213 H           1 TSV       0.0435
     57 H6        -11.5375   -6.7897   13.0430 H           1 TSV       0.2148
     58 H7        -12.5673   -3.7146   16.2008 H           1 TSV       0.0452
     59 H8        -20.5690  -12.5604   18.8708 H           1 TSV       0.0260
     60 H9        -20.9693  -10.9777   18.1792 H           1 TSV       0.0260
     61 H10       -19.3883  -11.2390   18.9286 H           1 TSV       0.0260
     62 H11       -21.1035  -13.6969   16.5919 H           1 TSV       0.0260
     63 H12       -20.3241  -13.1032   15.1159 H           1 TSV       0.0260
     64 H13       -21.5275  -12.1040   15.9400 H           1 TSV       0.0260
     65 H14       -18.7284  -13.9726   17.8315 H           1 TSV       0.0260
     66 H15       -17.5760  -12.6375   17.6754 H           1 TSV       0.0260
     67 H16       -18.0531  -13.5715   16.2516 H           1 TSV       0.0260
     68 H17       -14.2899   -2.9040   15.0108 H           1 TSV       0.0450
     69 H18       -10.6275  -14.8299   10.5238 H           1 TSV       0.0373
     70 H19       -16.3272   -4.2239   15.0925 H           1 TSV       0.0388
     71 H20       -15.3692   -5.6867   14.9037 H           1 TSV       0.0388
     72 H21       -12.0655  -19.3239    8.8115 H           1 TSV       0.0607
     73 H22       -13.5681  -10.0950   15.4164 H           1 TSV       0.0803
     74 H23       -10.5987  -17.5149    9.5415 H           1 TSV       0.0580
     75 H24       -14.4717  -19.0165    8.7928 H           1 TSV       0.0604
     76 H25       -14.6328   -4.9603   12.6541 H           1 TSV       0.0285
     77 H26       -15.5556   -3.4696   12.8192 H           1 TSV       0.0285
     78 H27       -16.7842   -4.9074   11.3983 H           1 TSV       0.0267
     79 H28       -17.6903   -4.8192   12.8962 H           1 TSV       0.0267
     80 H29       -15.7372   -7.1202   12.5293 H           1 TSV       0.0267
     81 H30       -17.1804   -7.1475   11.5448 H           1 TSV       0.0267
     82 H31       -10.1367   -4.8402    9.7214 H           1 TSV       0.0559
     83 H32       -18.6540   -7.3025   13.3786 H           1 TSV       0.0312
     84 H33       -17.4522   -6.8172   14.5605 H           1 TSV       0.0312
     85 H34       -12.7827  -11.7312   14.0213 H           1 TSV       0.0342
     86 H35       -11.7493  -10.4612   13.3494 H           1 TSV       0.0342
     87 H36       -17.4448   -9.4425   12.9947 H           1 TSV       0.0799
     88 H37       -12.2029   -6.9216   10.8687 H           1 TSV       0.0285
     89 H38       -11.9606   -6.3909    9.0810 H           1 TSV       0.0285
     90 H39       -13.1625  -10.1141   11.4963 H           1 TSV       0.0673
     91 H40       -14.7387  -14.3107   10.5679 H           1 TSV       0.0367
     92 H41       -12.4766   -4.0728    9.7144 H           1 TSV       0.0285
     93 H42       -12.6299   -4.5582   11.5230 H           1 TSV       0.0285
     94 H43       -15.4181   -9.7927   11.8231 H           1 TSV       0.0553
     95 H44       -15.6386  -11.3172   12.7172 H           1 TSV       0.0553
@<TRIPOS>BOND
     1     6     1   1
     2     9     1   1
     3    37     2   1
     4     3    36  am
     5    44     3   1
     6     4    24   1
     7    36     4   1
     8    10     5  am
     9     5    14   2
    10     5    19   2
    11     5    39   1
    12     7     6   1
    13     6     9   1
    14     6    12   1
    15    27     7  am
    16    36     8   2
    17     9    15   1
    18    12    10  am
    19    49    11   2
    20    12    25   2
    21    13    28   1
    22    13    47   1
    23    51    13  am
    24    15    26   2
    25    31    16   1
    26    16    49  am
    27    16    50   1
    28    51    17   2
    29    24    18   1
    30    24    20   1
    31    27    21   2
    32    24    22   1
    33    46    23   1
    34    23    51   1
    35    26    29   1
    36    31    27   1
    37    28    40   2
    38    29    34   1
    39    32    30  ar
    40    33    30  ar
    41    43    31   1
    42    40    32  ar
    43    37    33  ar
    44    34    35   1
    45    35    38   1
    46    42    37  ar
    47    38    41   1
    48    39    45   1
    49    39    48   1
    50    42    40  ar
    51    41    44   1
    52    47    42   2
    53    43    46   1
    54    44    49   1
    55    45    48   1
    56    46    50   1
    57     1    52   1
    58     1    53   1
    59     3    54   1
    60     7    55   1
    61     9    56   1
    62    10    57   1
    63    15    58   1
    64    18    59   1
    65    18    60   1
    66    18    61   1
    67    20    62   1
    68    20    63   1
    69    20    64   1
    70    22    65   1
    71    22    66   1
    72    22    67   1
    73    26    68   1
    74    28    69   1
    75    29    70   1
    76    29    71   1
    77    30    72   1
    78    31    73   1
    79    32    74   1
    80    33    75   1
    81    34    76   1
    82    34    77   1
    83    35    78   1
    84    35    79   1
    85    38    80   1
    86    38    81   1
    87    39    82   1
    88    41    83   1
    89    41    84   1
    90    43    85   1
    91    43    86   1
    92    44    87   1
    93    45    88   1
    94    45    89   1
    95    46    90   1
    96    47    91   1
    97    48    92   1
    98    48    93   1
    99    50    94   1
   100    50    95   1
@<TRIPOS>SUBSTRUCTURE
     1  TSV      1

