@<TRIPOS>MOLECULE
3su2_ligand_024
    95   100
SMALL
GAST_HUCK
****
This file was generated by PARSER (from files_GN.cpp)

@<TRIPOS>ATOM
      1 C1        -14.5205  -11.1995   10.9994 C.3         1 TSV      -0.0069
      2 F1         -6.1929   -1.0107   11.3299 F           1 TSV      -0.1836
      3 N1        -14.7514   -3.7712   10.7249 N.am        1 TSV      -0.2412
      4 O1        -15.3960   -3.0596    8.6176 O.3         1 TSV      -0.2580
      5 S1        -13.0425  -13.0040   15.0094 S.o2        1 TSV       0.0645
      6 C2        -14.2873  -10.3717   12.2851 C.3         1 TSV       0.1453
      7 N2        -13.2651   -9.3802   12.1780 N.am        1 TSV      -0.2722
      8 O2        -16.5629   -4.8383    9.6228 O.2         1 TSV      -0.3774
      9 C3        -15.5192  -10.1018   11.3872 C.3         1 TSV       0.0105
     10 N3        -13.2421  -12.0036   13.6705 N.am        1 TSV      -0.1550
     11 O3        -14.2846   -6.5833   11.0856 O.2         1 TSV      -0.3942
     12 C4        -14.2855  -11.2175   13.4629 C.2         1 TSV       0.2463
     13 N4         -8.1899   -4.8289   11.1101 N.am        1 TSV      -0.2075
     14 O4        -12.6513  -12.1257   16.2772 O.2         1 TSV      -0.1503
     15 C5        -16.8394  -10.4515   11.8765 C.2         1 TSV      -0.0942
     16 N5        -12.8162   -5.9846   12.6211 N.am        1 TSV      -0.2469
     17 O5         -9.4239   -6.8103   11.2474 O.2         1 TSV      -0.3166
     18 C6        -17.6033   -2.6723    7.5769 C.3         1 TSV      -0.0320
     19 O6        -11.7782  -13.9084   14.6686 O.2         1 TSV      -0.1503
     20 C7        -15.4383   -1.7084    6.6545 C.3         1 TSV      -0.0320
     21 O7        -13.7641   -8.2853   14.0493 O.2         1 TSV      -0.3947
     22 C8        -15.8625   -4.2127    6.4894 C.3         1 TSV      -0.0320
     23 O8         -9.7553   -5.1123   12.8552 O.3         1 TSV      -0.2338
     24 C9        -16.0844   -2.9374    7.3558 C.3         1 TSV       0.0905
     25 O9        -15.2047  -11.1179   14.2655 O.2         1 TSV      -0.3402
     26 C10       -17.7114   -9.5688   12.3954 C.2         1 TSV      -0.0985
     27 C11       -13.0916   -8.3755   13.0271 C.2         1 TSV       0.2014
     28 C12        -7.5445   -5.1803    9.9704 C.2         1 TSV       0.0391
     29 C13       -17.5165   -8.1314   12.5581 C.3         1 TSV      -0.0365
     30 C14        -5.0785   -2.8363    8.3774 C.ar        1 TSV      -0.0639
     31 C15       -12.1820   -7.2844   12.6825 C.3         1 TSV       0.1363
     32 C16        -5.8333   -4.0207    8.4969 C.ar        1 TSV      -0.0660
     33 C17        -5.2024   -1.8115    9.3453 C.ar        1 TSV      -0.0284
     34 C18       -17.6481   -7.6690   14.0333 C.3         1 TSV      -0.0464
     35 C19       -17.6019   -6.1282   14.2539 C.3         1 TSV      -0.0513
     36 C20       -15.5802   -3.9102    9.6619 C.2         1 TSV       0.3223
     37 C21        -6.0789   -1.9607   10.4425 C.ar        1 TSV       0.1323
     38 C22       -16.2562   -5.4239   13.9054 C.3         1 TSV      -0.0487
     39 C23       -14.4615  -14.0922   15.2721 C.3         1 TSV       0.1004
     40 C24        -6.6957   -4.1527    9.5979 C.ar        1 TSV      -0.0325
     41 C25       -16.1930   -4.8331   12.4648 C.3         1 TSV      -0.0124
     42 C26        -6.8219   -3.1514   10.5555 C.ar        1 TSV       0.0028
     43 C27       -11.0493   -7.1350   13.7301 C.3         1 TSV       0.0206
     44 C28       -14.7472   -4.5198   11.9541 C.3         1 TSV       0.1330
     45 C29       -14.1967  -15.4944   15.8416 C.3         1 TSV      -0.0268
     46 C30       -10.7562   -5.6269   13.7539 C.3         1 TSV       0.1158
     47 C31        -7.7560   -3.6026   11.4837 C.2         1 TSV       0.0402
     48 C32       -14.8473  -14.4221   16.7220 C.3         1 TSV      -0.0268
     49 C33       -13.9006   -5.7194   11.8668 C.2         1 TSV       0.2064
     50 C34       -12.1307   -5.0126   13.4236 C.3         1 TSV       0.0677
     51 C35        -9.1190   -5.5890   11.7469 C.2         1 TSV       0.4317
     52 H1        -14.8902  -12.2236   11.0999 H           1 TSV       0.0300
     53 H2        -13.8882  -10.9622   10.1422 H           1 TSV       0.0300
     54 H3        -14.0889   -3.0650   10.6543 H           1 TSV       0.1899
     55 H4        -12.7269   -9.3819   11.3706 H           1 TSV       0.1841
     56 H5        -15.4530   -9.2591   10.6925 H           1 TSV       0.0435
     57 H6        -12.5419  -12.0180   12.9961 H           1 TSV       0.2148
     58 H7        -17.1187  -11.4032   11.8203 H           1 TSV       0.0452
     59 H8        -18.1043   -2.4731    6.6270 H           1 TSV       0.0260
     60 H9        -17.7466   -1.8110    8.2326 H           1 TSV       0.0260
     61 H10       -18.0874   -3.5337    8.0380 H           1 TSV       0.0260
     62 H11       -15.8874   -1.5353    5.6734 H           1 TSV       0.0260
     63 H12       -14.3650   -1.8655    6.5194 H           1 TSV       0.0260
     64 H13       -15.5749   -0.8081    7.2593 H           1 TSV       0.0260
     65 H14       -16.2745   -4.0778    5.4869 H           1 TSV       0.0260
     66 H15       -16.3481   -5.0796    6.9399 H           1 TSV       0.0260
     67 H16       -14.7958   -4.4293    6.3999 H           1 TSV       0.0260
     68 H17       -18.5954   -9.9290   12.6791 H           1 TSV       0.0450
     69 H18        -7.6669   -6.0488    9.4459 H           1 TSV       0.0373
     70 H19       -18.2715   -7.6220   11.9529 H           1 TSV       0.0388
     71 H20       -16.5374   -7.8214   12.1966 H           1 TSV       0.0388
     72 H21        -4.4399   -2.7181    7.5868 H           1 TSV       0.0607
     73 H22       -11.7383   -7.4773   11.7014 H           1 TSV       0.0803
     74 H23        -5.7505   -4.7655    7.8029 H           1 TSV       0.0580
     75 H24        -4.6492   -0.9553    9.2436 H           1 TSV       0.0604
     76 H25       -16.8546   -8.1376   14.6237 H           1 TSV       0.0285
     77 H26       -18.6041   -8.0299   14.4232 H           1 TSV       0.0285
     78 H27       -17.7919   -5.9603   15.3150 H           1 TSV       0.0267
     79 H28       -18.4239   -5.6575   13.7088 H           1 TSV       0.0267
     80 H29       -15.4408   -6.1292   14.0661 H           1 TSV       0.0267
     81 H30       -16.0984   -4.5964   14.6045 H           1 TSV       0.0267
     82 H31       -15.2932  -14.0374   14.5665 H           1 TSV       0.0559
     83 H32       -16.7763   -3.9055   12.4543 H           1 TSV       0.0312
     84 H33       -16.6827   -5.5165   11.7716 H           1 TSV       0.0312
     85 H34       -10.1684   -7.7334   13.4911 H           1 TSV       0.0342
     86 H35       -11.3924   -7.4271   14.7300 H           1 TSV       0.0342
     87 H36       -14.3341   -3.8273   12.6881 H           1 TSV       0.0799
     88 H37       -13.1672  -15.7453   16.1044 H           1 TSV       0.0285
     89 H38       -14.8672  -16.2833   15.4966 H           1 TSV       0.0285
     90 H39       -10.4450   -5.3348   14.7592 H           1 TSV       0.0673
     91 H40        -8.0720   -3.0714   12.3012 H           1 TSV       0.0367
     92 H41       -15.9133  -14.5550   16.9123 H           1 TSV       0.0285
     93 H42       -14.2079  -14.0367   17.5185 H           1 TSV       0.0285
     94 H43       -12.6996   -4.8254   14.3355 H           1 TSV       0.0553
     95 H44       -11.9887   -4.0671   12.8910 H           1 TSV       0.0553
@<TRIPOS>BOND
     1     6     1   1
     2     9     1   1
     3    37     2   1
     4     3    36  am
     5    44     3   1
     6     4    24   1
     7    36     4   1
     8    10     5  am
     9     5    14   2
    10     5    19   2
    11     5    39   1
    12     7     6   1
    13     6     9   1
    14     6    12   1
    15    27     7  am
    16    36     8   2
    17     9    15   1
    18    12    10  am
    19    49    11   2
    20    12    25   2
    21    13    28   1
    22    13    47   1
    23    51    13  am
    24    15    26   2
    25    31    16   1
    26    16    49  am
    27    16    50   1
    28    51    17   2
    29    24    18   1
    30    24    20   1
    31    27    21   2
    32    24    22   1
    33    46    23   1
    34    23    51   1
    35    26    29   1
    36    31    27   1
    37    28    40   2
    38    29    34   1
    39    32    30  ar
    40    33    30  ar
    41    43    31   1
    42    40    32  ar
    43    37    33  ar
    44    34    35   1
    45    35    38   1
    46    42    37  ar
    47    38    41   1
    48    39    45   1
    49    39    48   1
    50    42    40  ar
    51    41    44   1
    52    47    42   2
    53    43    46   1
    54    44    49   1
    55    45    48   1
    56    46    50   1
    57     1    52   1
    58     1    53   1
    59     3    54   1
    60     7    55   1
    61     9    56   1
    62    10    57   1
    63    15    58   1
    64    18    59   1
    65    18    60   1
    66    18    61   1
    67    20    62   1
    68    20    63   1
    69    20    64   1
    70    22    65   1
    71    22    66   1
    72    22    67   1
    73    26    68   1
    74    28    69   1
    75    29    70   1
    76    29    71   1
    77    30    72   1
    78    31    73   1
    79    32    74   1
    80    33    75   1
    81    34    76   1
    82    34    77   1
    83    35    78   1
    84    35    79   1
    85    38    80   1
    86    38    81   1
    87    39    82   1
    88    41    83   1
    89    41    84   1
    90    43    85   1
    91    43    86   1
    92    44    87   1
    93    45    88   1
    94    45    89   1
    95    46    90   1
    96    47    91   1
    97    48    92   1
    98    48    93   1
    99    50    94   1
   100    50    95   1
@<TRIPOS>SUBSTRUCTURE
     1  TSV      1

