@<TRIPOS>MOLECULE
3su2_ligand_001
    95   100
SMALL
GAST_HUCK
****
This file was generated by PARSER (from files_GN.cpp)

@<TRIPOS>ATOM
      1 C1        -12.0687   -6.2959   17.5123 C.3         1 TSV      -0.0069
      2 F1        -14.1680  -16.6779    8.6349 F           1 TSV      -0.1836
      3 N1        -18.1836   -8.6527   14.1697 N.am        1 TSV      -0.2412
      4 O1        -19.4046   -9.9110   15.6460 O.3         1 TSV      -0.2580
      5 S1         -8.5994   -6.1401   14.0628 S.o2        1 TSV       0.0645
      6 C2        -12.0975   -6.4841   15.9814 C.3         1 TSV       0.1453
      7 N2        -12.5252   -7.7824   15.5485 N.am        1 TSV      -0.2722
      8 O2        -17.4069  -10.8249   14.6937 O.2         1 TSV      -0.3774
      9 C3        -13.2366   -5.7066   16.7005 C.3         1 TSV       0.0105
     10 N3         -9.9579   -6.6553   14.9178 N.am        1 TSV      -0.1550
     11 O3        -15.6204   -8.1201   15.1341 O.2         1 TSV      -0.3942
     12 C4        -10.9448   -5.8695   15.3262 C.2         1 TSV       0.2463
     13 N4        -14.4963  -14.2407   12.1694 N.am        1 TSV      -0.2075
     14 O4         -7.5834   -5.3928   15.0310 O.2         1 TSV      -0.1503
     15 C5        -13.3677   -4.2643   16.5523 C.2         1 TSV      -0.0942
     16 N5        -14.7521   -9.2274   13.4175 N.am        1 TSV      -0.2469
     17 O5        -14.6475  -12.5818   13.8370 O.2         1 TSV      -0.3166
     18 C6        -19.0252  -12.1432   16.7625 C.3         1 TSV      -0.0320
     19 O6         -9.0457   -5.1956   12.8652 O.2         1 TSV      -0.1503
     20 C7        -19.8603  -10.0687   17.9832 C.3         1 TSV      -0.0320
     21 O7        -12.6636   -7.3160   13.3781 O.2         1 TSV      -0.3947
     22 C8        -21.3316  -11.2076   16.2418 C.3         1 TSV      -0.0320
     23 O8        -13.7775  -12.0427   11.7225 O.3         1 TSV      -0.2338
     24 C9        -19.8788  -10.8470   16.6357 C.3         1 TSV       0.0905
     25 O9        -10.9386   -4.6713   15.0729 O.2         1 TSV      -0.3402
     26 C10       -14.2134   -3.6626   15.6948 C.2         1 TSV      -0.0985
     27 C11       -12.8180   -8.1127   14.2975 C.2         1 TSV       0.2014
     28 C12       -14.9698  -15.2555   12.9269 C.2         1 TSV       0.0391
     29 C13       -15.1777   -4.3040   14.8063 C.3         1 TSV      -0.0365
     30 C14       -15.4442  -18.6738   11.4050 C.ar        1 TSV      -0.0639
     31 C15       -13.4553   -9.3985   14.0203 C.3         1 TSV       0.1363
     32 C16       -15.4724  -17.7101   12.4366 C.ar        1 TSV      -0.0660
     33 C17       -14.9995  -18.3226   10.1099 C.ar        1 TSV      -0.0284
     34 C18       -14.9485   -3.9597   13.3110 C.3         1 TSV      -0.0464
     35 C19       -16.0384   -4.4927   12.3369 C.3         1 TSV      -0.0513
     36 C20       -18.3425   -9.8407   14.7912 C.2         1 TSV       0.3223
     37 C21       -14.5763  -17.0040    9.8314 C.ar        1 TSV       0.1323
     38 C22       -16.1438   -6.0427   12.2261 C.3         1 TSV      -0.0487
     39 C23        -7.8369   -7.5843   13.2791 C.3         1 TSV       0.1004
     40 C24       -15.0493  -16.4015   12.1460 C.ar        1 TSV      -0.0325
     41 C25       -17.2124   -6.6859   13.1591 C.3         1 TSV      -0.0124
     42 C26       -14.6080  -16.0556   10.8716 C.ar        1 TSV       0.0028
     43 C27       -12.6052  -10.2734   13.0570 C.3         1 TSV       0.0206
     44 C28       -17.0554   -8.2238   13.3737 C.3         1 TSV       0.1330
     45 C29        -6.3450   -7.5357   12.9041 C.3         1 TSV      -0.0268
     46 C30       -13.5429  -10.6293   11.8850 C.3         1 TSV       0.1158
     47 C31       -14.2678  -14.7095   10.9185 C.2         1 TSV       0.0402
     48 C32        -6.8082   -8.3705   14.1098 C.3         1 TSV      -0.0268
     49 C33       -15.7574   -8.5452   13.9924 C.2         1 TSV       0.2064
     50 C34       -14.8406   -9.8292   12.1246 C.3         1 TSV       0.0677
     51 C35       -14.3018  -12.9613   12.5805 C.2         1 TSV       0.4317
     52 H1        -11.3653   -5.5676   17.9314 H           1 TSV       0.0300
     53 H2        -12.3257   -7.1721   18.1166 H           1 TSV       0.0300
     54 H3        -18.8837   -7.9856   14.3288 H           1 TSV       0.1899
     55 H4        -12.6871   -8.4425   16.2399 H           1 TSV       0.1841
     56 H5        -14.1626   -6.2576   16.9071 H           1 TSV       0.0435
     57 H6        -10.0258   -7.6089   15.0934 H           1 TSV       0.2148
     58 H7        -12.7869   -3.6895   17.1199 H           1 TSV       0.0452
     59 H8        -19.4774  -12.8352   17.4734 H           1 TSV       0.0260
     60 H9        -18.0133  -11.9101   17.0999 H           1 TSV       0.0260
     61 H10       -18.9592  -12.6445   15.7975 H           1 TSV       0.0260
     62 H11       -20.2637  -10.6790   18.7939 H           1 TSV       0.0260
     63 H12       -20.4581   -9.1561   17.9120 H           1 TSV       0.0260
     64 H13       -18.8404   -9.7744   18.2494 H           1 TSV       0.0260
     65 H14       -21.7890  -11.8416   16.9971 H           1 TSV       0.0260
     66 H15       -21.3382  -11.7383   15.2921 H           1 TSV       0.0260
     67 H16       -21.9371  -10.3098   16.1338 H           1 TSV       0.0260
     68 H17       -14.1929   -2.6669   15.6823 H           1 TSV       0.0450
     69 H18       -15.2307  -15.2065   13.9140 H           1 TSV       0.0373
     70 H19       -16.1731   -3.9653   15.1073 H           1 TSV       0.0388
     71 H20       -15.1482   -5.3866   14.9219 H           1 TSV       0.0388
     72 H21       -15.7495  -19.6328   11.5956 H           1 TSV       0.0607
     73 H22       -13.5892   -9.9605   14.9513 H           1 TSV       0.0803
     74 H23       -15.7953  -17.9607   13.3740 H           1 TSV       0.0580
     75 H24       -14.9863  -19.0324    9.3708 H           1 TSV       0.0604
     76 H25       -13.9742   -4.3520   13.0071 H           1 TSV       0.0285
     77 H26       -14.9108   -2.8717   13.2088 H           1 TSV       0.0285
     78 H27       -15.7937   -4.1008   11.3473 H           1 TSV       0.0267
     79 H28       -17.0078   -4.0682   12.6103 H           1 TSV       0.0267
     80 H29       -15.1565   -6.4693   12.4138 H           1 TSV       0.0267
     81 H30       -16.4049   -6.3060   11.1949 H           1 TSV       0.0267
     82 H31        -8.4545   -8.1922   12.6122 H           1 TSV       0.0559
     83 H32       -18.1969   -6.4797   12.7191 H           1 TSV       0.0312
     84 H33       -17.2009   -6.1929   14.1342 H           1 TSV       0.0312
     85 H34       -12.2413  -11.1724   13.5667 H           1 TSV       0.0342
     86 H35       -11.7215   -9.7464   12.6753 H           1 TSV       0.0342
     87 H36       -17.1748   -8.6962   12.3963 H           1 TSV       0.0799
     88 H37        -5.8096   -6.6135   13.1431 H           1 TSV       0.0285
     89 H38        -6.0516   -8.1175   12.0262 H           1 TSV       0.0285
     90 H39       -13.0803  -10.2967   10.9490 H           1 TSV       0.0673
     91 H40       -13.9202  -14.1691   10.1250 H           1 TSV       0.0367
     92 H41        -6.8084   -9.4519   13.9584 H           1 TSV       0.0285
     93 H42        -6.5251   -7.9643   15.0839 H           1 TSV       0.0285
     94 H43       -14.9499   -9.0630   11.3513 H           1 TSV       0.0553
     95 H44       -15.6979  -10.5039   12.0742 H           1 TSV       0.0553
@<TRIPOS>BOND
     1     6     1   1
     2     9     1   1
     3    37     2   1
     4     3    36  am
     5    44     3   1
     6     4    24   1
     7    36     4   1
     8    10     5  am
     9     5    14   2
    10     5    19   2
    11     5    39   1
    12     7     6   1
    13     6     9   1
    14     6    12   1
    15    27     7  am
    16    36     8   2
    17     9    15   1
    18    12    10  am
    19    49    11   2
    20    12    25   2
    21    13    28   1
    22    13    47   1
    23    51    13  am
    24    15    26   2
    25    31    16   1
    26    16    49  am
    27    16    50   1
    28    51    17   2
    29    24    18   1
    30    24    20   1
    31    27    21   2
    32    24    22   1
    33    46    23   1
    34    23    51   1
    35    26    29   1
    36    31    27   1
    37    28    40   2
    38    29    34   1
    39    32    30  ar
    40    33    30  ar
    41    43    31   1
    42    40    32  ar
    43    37    33  ar
    44    34    35   1
    45    35    38   1
    46    42    37  ar
    47    38    41   1
    48    39    45   1
    49    39    48   1
    50    42    40  ar
    51    41    44   1
    52    47    42   2
    53    43    46   1
    54    44    49   1
    55    45    48   1
    56    46    50   1
    57     1    52   1
    58     1    53   1
    59     3    54   1
    60     7    55   1
    61     9    56   1
    62    10    57   1
    63    15    58   1
    64    18    59   1
    65    18    60   1
    66    18    61   1
    67    20    62   1
    68    20    63   1
    69    20    64   1
    70    22    65   1
    71    22    66   1
    72    22    67   1
    73    26    68   1
    74    28    69   1
    75    29    70   1
    76    29    71   1
    77    30    72   1
    78    31    73   1
    79    32    74   1
    80    33    75   1
    81    34    76   1
    82    34    77   1
    83    35    78   1
    84    35    79   1
    85    38    80   1
    86    38    81   1
    87    39    82   1
    88    41    83   1
    89    41    84   1
    90    43    85   1
    91    43    86   1
    92    44    87   1
    93    45    88   1
    94    45    89   1
    95    46    90   1
    96    47    91   1
    97    48    92   1
    98    48    93   1
    99    50    94   1
   100    50    95   1
@<TRIPOS>SUBSTRUCTURE
     1  TSV      1

