@<TRIPOS>MOLECULE
3su2_ligand_005
    95   100
SMALL
GAST_HUCK
****
This file was generated by PARSER (from files_GN.cpp)

@<TRIPOS>ATOM
      1 C1        -11.5265   -5.6446   15.7035 C.3         1 TSV      -0.0069
      2 F1        -14.0535  -18.5256   13.3930 F           1 TSV      -0.1836
      3 N1        -17.8372   -9.7367   15.4622 N.am        1 TSV      -0.2412
      4 O1        -18.6529  -11.3584   16.9074 O.3         1 TSV      -0.2580
      5 S1        -10.9744   -5.3961   10.4483 S.o2        1 TSV       0.0645
      6 C2        -11.8892   -6.2075   14.3074 C.3         1 TSV       0.1453
      7 N2        -12.1034   -7.6217   14.3044 N.am        1 TSV      -0.2722
      8 O2        -17.6922  -12.0137   14.8572 O.2         1 TSV      -0.3774
      9 C3        -12.9563   -5.4602   15.1613 C.3         1 TSV       0.0105
     10 N3        -11.5276   -6.0085   11.9216 N.am        1 TSV      -0.1550
     11 O3        -15.3281   -8.5213   15.4616 O.2         1 TSV      -0.3942
     12 C4        -11.2738   -5.5611   13.1407 C.2         1 TSV       0.2463
     13 N4        -13.4308  -14.5425   14.9047 N.am        1 TSV      -0.2075
     14 O4        -10.2675   -6.6092    9.7024 O.2         1 TSV      -0.1503
     15 C5        -13.4003   -4.1173   14.8199 C.2         1 TSV      -0.0942
     16 N5        -14.8039   -9.9098   13.8257 N.am        1 TSV      -0.2469
     17 O5        -13.3690  -12.2769   15.4623 O.2         1 TSV      -0.3166
     18 C6        -19.6736  -12.3120   18.8455 C.3         1 TSV      -0.0320
     19 O6         -9.8227   -4.3093   10.5995 O.2         1 TSV      -0.1503
     20 C7        -20.0403  -13.3679   16.5603 C.3         1 TSV      -0.0320
     21 O7        -13.7568   -7.6303   12.8245 O.2         1 TSV      -0.3947
     22 C8        -17.7460  -13.5146   17.7013 C.3         1 TSV      -0.0320
     23 O8        -13.6691  -12.9060   13.2123 O.3         1 TSV      -0.2338
     24 C9        -19.0128  -12.6360   17.4750 C.3         1 TSV       0.0905
     25 O9        -10.5105   -4.6171   13.2885 O.2         1 TSV      -0.3402
     26 C10       -14.6382   -3.7921   14.4188 C.2         1 TSV      -0.0985
     27 C11       -13.0585   -8.2449   13.6181 C.2         1 TSV       0.2014
     28 C12       -13.1108  -14.9797   16.1460 C.2         1 TSV       0.0391
     29 C13       -15.7811   -4.6887   14.2530 C.3         1 TSV      -0.0365
     30 C14       -13.0254  -18.6697   16.8870 C.ar        1 TSV      -0.0639
     31 C15       -13.3787   -9.6384   13.8943 C.3         1 TSV       0.1363
     32 C16       -12.8836  -17.2973   17.1804 C.ar        1 TSV      -0.0660
     33 C17       -13.4286  -19.0891   15.5988 C.ar        1 TSV      -0.0284
     34 C18       -16.3234   -4.6827   12.8007 C.3         1 TSV      -0.0464
     35 C19       -17.5418   -5.6169   12.5414 C.3         1 TSV      -0.0513
     36 C20       -18.0533  -11.0441   15.7285 C.2         1 TSV       0.3223
     37 C21       -13.6765  -18.1413   14.5812 C.ar        1 TSV       0.1323
     38 C22       -17.2684   -7.1474   12.6755 C.3         1 TSV      -0.0487
     39 C23       -12.2679   -4.7692    9.3508 C.3         1 TSV       0.1004
     40 C24       -13.1450  -16.3674   16.1595 C.ar        1 TSV      -0.0325
     41 C25       -17.7204   -7.7701   14.0293 C.3         1 TSV      -0.0124
     42 C26       -13.5193  -16.7753   14.8820 C.ar        1 TSV       0.0028
     43 C27       -12.7076  -10.6039   12.8791 C.3         1 TSV       0.0206
     44 C28       -17.1723   -9.2102   14.3056 C.3         1 TSV       0.1330
     45 C29       -13.7040   -5.2853    9.5310 C.3         1 TSV      -0.0268
     46 C30       -13.7953  -11.6368   12.5326 C.3         1 TSV       0.1158
     47 C31       -13.6743  -15.6195   14.1215 C.2         1 TSV       0.0402
     48 C32       -13.3436   -3.8500    9.9445 C.3         1 TSV      -0.0268
     49 C33       -15.7204   -9.2325   14.5424 C.2         1 TSV       0.2064
     50 C34       -15.1142  -10.9078   12.8492 C.3         1 TSV       0.0677
     51 C35       -13.4995  -13.2415   14.5235 C.2         1 TSV       0.4317
     52 H1        -10.9262   -4.7368   15.7689 H           1 TSV       0.0300
     53 H2        -11.4350   -6.3676   16.5140 H           1 TSV       0.0300
     54 H3        -18.1534   -9.0904   16.1145 H           1 TSV       0.1899
     55 H4        -11.5942   -8.1613   14.9250 H           1 TSV       0.1841
     56 H5        -13.6387   -6.0597   15.7702 H           1 TSV       0.0435
     57 H6        -12.1108   -6.7730   11.8467 H           1 TSV       0.2148
     58 H7        -12.7463   -3.3746   14.9224 H           1 TSV       0.0452
     59 H8        -19.9736  -13.2279   19.3598 H           1 TSV       0.0260
     60 H9        -20.5599  -11.6889   18.7051 H           1 TSV       0.0260
     61 H10       -18.9766  -11.7695   19.4887 H           1 TSV       0.0260
     62 H11       -20.4133  -14.2735   17.0440 H           1 TSV       0.0260
     63 H12       -19.5850  -13.6560   15.6119 H           1 TSV       0.0260
     64 H13       -20.8888  -12.7149   16.3460 H           1 TSV       0.0260
     65 H14       -18.0142  -14.4619   18.1736 H           1 TSV       0.0260
     66 H15       -17.0313  -12.9981   18.3449 H           1 TSV       0.0260
     67 H16       -17.2511  -13.7376   16.7554 H           1 TSV       0.0260
     68 H17       -14.8141   -2.8266   14.2393 H           1 TSV       0.0450
     69 H18       -12.8639  -14.3995   16.9510 H           1 TSV       0.0373
     70 H19       -16.5755   -4.3557   14.9256 H           1 TSV       0.0388
     71 H20       -15.5283   -5.7123   14.5240 H           1 TSV       0.0388
     72 H21       -12.8410  -19.3646   17.6125 H           1 TSV       0.0607
     73 H22       -13.0321   -9.8897   14.9015 H           1 TSV       0.0803
     74 H23       -12.6015  -16.9885   18.1140 H           1 TSV       0.0580
     75 H24       -13.5419  -20.0872   15.4061 H           1 TSV       0.0604
     76 H25       -15.5178   -4.9598   12.1175 H           1 TSV       0.0285
     77 H26       -16.6282   -3.6621   12.5495 H           1 TSV       0.0285
     78 H27       -17.8704   -5.4255   11.5156 H           1 TSV       0.0267
     79 H28       -18.3657   -5.3203   13.1954 H           1 TSV       0.0267
     80 H29       -16.2098   -7.3359   12.5141 H           1 TSV       0.0267
     81 H30       -17.8016   -7.6728   11.8775 H           1 TSV       0.0267
     82 H31       -11.9941   -4.5276    8.3213 H           1 TSV       0.0559
     83 H32       -18.8148   -7.8092   14.0186 H           1 TSV       0.0312
     84 H33       -17.4407   -7.1089   14.8531 H           1 TSV       0.0312
     85 H34       -11.8231  -11.0839   13.3027 H           1 TSV       0.0342
     86 H35       -12.4037  -10.0840   11.9652 H           1 TSV       0.0342
     87 H36       -17.4504   -9.8108   13.4366 H           1 TSV       0.0799
     88 H37       -13.9071   -5.9592   10.3647 H           1 TSV       0.0285
     89 H38       -14.3062   -5.3679    8.6248 H           1 TSV       0.0285
     90 H39       -13.7642  -11.8642   11.4632 H           1 TSV       0.0673
     91 H40       -13.9511  -15.6026   13.1367 H           1 TSV       0.0367
     92 H41       -13.7042   -3.0618    9.2814 H           1 TSV       0.0285
     93 H42       -13.2916   -3.6632   11.0190 H           1 TSV       0.0285
     94 H43       -15.5123  -10.4211   11.9533 H           1 TSV       0.0553
     95 H44       -15.8393  -11.6350   13.2116 H           1 TSV       0.0553
@<TRIPOS>BOND
     1     6     1   1
     2     9     1   1
     3    37     2   1
     4     3    36  am
     5    44     3   1
     6     4    24   1
     7    36     4   1
     8    10     5  am
     9     5    14   2
    10     5    19   2
    11     5    39   1
    12     7     6   1
    13     6     9   1
    14     6    12   1
    15    27     7  am
    16    36     8   2
    17     9    15   1
    18    12    10  am
    19    49    11   2
    20    12    25   2
    21    13    28   1
    22    13    47   1
    23    51    13  am
    24    15    26   2
    25    31    16   1
    26    16    49  am
    27    16    50   1
    28    51    17   2
    29    24    18   1
    30    24    20   1
    31    27    21   2
    32    24    22   1
    33    46    23   1
    34    23    51   1
    35    26    29   1
    36    31    27   1
    37    28    40   2
    38    29    34   1
    39    32    30  ar
    40    33    30  ar
    41    43    31   1
    42    40    32  ar
    43    37    33  ar
    44    34    35   1
    45    35    38   1
    46    42    37  ar
    47    38    41   1
    48    39    45   1
    49    39    48   1
    50    42    40  ar
    51    41    44   1
    52    47    42   2
    53    43    46   1
    54    44    49   1
    55    45    48   1
    56    46    50   1
    57     1    52   1
    58     1    53   1
    59     3    54   1
    60     7    55   1
    61     9    56   1
    62    10    57   1
    63    15    58   1
    64    18    59   1
    65    18    60   1
    66    18    61   1
    67    20    62   1
    68    20    63   1
    69    20    64   1
    70    22    65   1
    71    22    66   1
    72    22    67   1
    73    26    68   1
    74    28    69   1
    75    29    70   1
    76    29    71   1
    77    30    72   1
    78    31    73   1
    79    32    74   1
    80    33    75   1
    81    34    76   1
    82    34    77   1
    83    35    78   1
    84    35    79   1
    85    38    80   1
    86    38    81   1
    87    39    82   1
    88    41    83   1
    89    41    84   1
    90    43    85   1
    91    43    86   1
    92    44    87   1
    93    45    88   1
    94    45    89   1
    95    46    90   1
    96    47    91   1
    97    48    92   1
    98    48    93   1
    99    50    94   1
   100    50    95   1
@<TRIPOS>SUBSTRUCTURE
     1  TSV      1

