@<TRIPOS>MOLECULE
3su2_ligand_017
    95   100
SMALL
GAST_HUCK
****
This file was generated by PARSER (from files_GN.cpp)

@<TRIPOS>ATOM
      1 C1        -13.1090  -10.4523   14.5392 C.3         1 TSV      -0.0069
      2 F1         -5.3849  -13.2714    8.8399 F           1 TSV      -0.1836
      3 N1        -13.9069  -12.1690    7.3289 N.am        1 TSV      -0.2412
      4 O1        -14.1793  -14.4746    7.2909 O.3         1 TSV      -0.2580
      5 S1        -12.0140   -5.8115   15.0707 S.o2        1 TSV       0.0645
      6 C2        -13.0323   -9.3461   13.4631 C.3         1 TSV       0.1453
      7 N2        -12.1177   -9.5602   12.3826 N.am        1 TSV      -0.2722
      8 O2        -14.8818  -13.2771    9.1870 O.2         1 TSV      -0.3774
      9 C3        -14.2144  -10.3505   13.4752 C.3         1 TSV       0.0105
     10 N3        -12.0956   -7.4228   14.5684 N.am        1 TSV      -0.1550
     11 O3        -13.1956  -11.2498    9.9301 O.2         1 TSV      -0.3942
     12 C4        -13.1408   -7.9963   13.9894 C.2         1 TSV       0.2463
     13 N4         -7.2849  -10.0792    6.6669 N.am        1 TSV      -0.2075
     14 O4        -10.8739   -4.9787   14.3362 O.2         1 TSV      -0.1503
     15 C5        -15.5470   -9.8965   13.8455 C.2         1 TSV      -0.0942
     16 N5        -11.9992   -9.6821    8.9350 N.am        1 TSV      -0.2469
     17 O5         -8.5725   -8.3209    5.7790 O.2         1 TSV      -0.3166
     18 C6        -13.7178  -16.2540    8.9395 C.3         1 TSV      -0.0320
     19 O6        -11.3326   -6.0198   16.4956 O.2         1 TSV      -0.1503
     20 C7        -16.0475  -15.9722    7.9028 C.3         1 TSV      -0.0320
     21 O7        -12.9464   -7.9991   11.0264 O.2         1 TSV      -0.3947
     22 C8        -14.0884  -16.7178    6.4680 C.3         1 TSV      -0.0320
     23 O8         -9.0879   -9.1938    7.8947 O.3         1 TSV      -0.2338
     24 C9        -14.5143  -15.8273    7.6705 C.3         1 TSV       0.0905
     25 O9        -14.1704   -7.3889   13.7321 O.2         1 TSV      -0.3402
     26 C10       -16.5181   -9.5937   12.9664 C.2         1 TSV      -0.0985
     27 C11       -12.1410   -8.9015   11.2302 C.2         1 TSV       0.2014
     28 C12        -6.4296  -10.1702    5.6215 C.2         1 TSV       0.0391
     29 C13       -16.4513   -9.6888   11.5111 C.3         1 TSV      -0.0365
     30 C14        -3.6751  -12.7447    5.6644 C.ar        1 TSV      -0.0639
     31 C15       -11.2716   -9.3132   10.1311 C.3         1 TSV       0.1363
     32 C16        -4.4321  -11.6813    5.1277 C.ar        1 TSV      -0.0660
     33 C17        -3.9998  -13.2874    6.9282 C.ar        1 TSV      -0.0284
     34 C18       -16.7207   -8.3375   10.7966 C.3         1 TSV      -0.0464
     35 C19       -16.8302   -8.4187    9.2434 C.3         1 TSV      -0.0513
     36 C20       -14.3273  -13.2958    7.9530 C.2         1 TSV       0.3223
     37 C21        -5.0842  -12.7739    7.6721 C.ar        1 TSV       0.1323
     38 C22       -15.5292   -8.8198    8.4834 C.3         1 TSV      -0.0487
     39 C23       -13.4401   -4.8052   15.5789 C.3         1 TSV       0.1004
     40 C24        -5.5130  -11.1837    5.8761 C.ar        1 TSV      -0.0325
     41 C25       -15.3944  -10.3432    8.1770 C.3         1 TSV      -0.0124
     42 C26        -5.8336  -11.7172    7.1216 C.ar        1 TSV       0.0028
     43 C27       -10.3198   -8.1652    9.7111 C.3         1 TSV       0.0206
     44 C28       -13.9467  -10.8131    7.8146 C.3         1 TSV       0.1330
     45 C29       -13.6966   -3.5521   14.7142 C.3         1 TSV      -0.0268
     46 C30       -10.1906   -8.3241    8.1915 C.3         1 TSV       0.1158
     47 C31        -6.9379  -11.0113    7.5862 C.2         1 TSV       0.0402
     48 C32       -14.7214   -4.6822   14.7375 C.3         1 TSV      -0.0268
     49 C33       -12.9906  -10.5963    8.9135 C.2         1 TSV       0.2064
     50 C34       -11.5299   -8.9684    7.7835 C.3         1 TSV       0.0677
     51 C35        -8.3126   -9.2008    6.7766 C.2         1 TSV       0.4317
     52 H1        -13.4014  -10.1592   15.5539 H           1 TSV       0.0300
     53 H2        -12.4164  -11.2914   14.4150 H           1 TSV       0.0300
     54 H3        -13.5417  -12.2921    6.4384 H           1 TSV       0.1899
     55 H4        -11.4884  -10.2947   12.4657 H           1 TSV       0.1841
     56 H5        -14.1574  -11.1891   12.7742 H           1 TSV       0.0435
     57 H6        -11.2823   -7.9469   14.6548 H           1 TSV       0.2148
     58 H7        -15.7524   -9.7939   14.8147 H           1 TSV       0.0452
     59 H8        -13.8912  -17.3079    9.1682 H           1 TSV       0.0260
     60 H9        -14.0213  -15.6671    9.8064 H           1 TSV       0.0260
     61 H10       -12.6477  -16.1045    8.7852 H           1 TSV       0.0260
     62 H11       -16.3091  -17.0087    8.1244 H           1 TSV       0.0260
     63 H12       -16.5990  -15.6586    7.0152 H           1 TSV       0.0260
     64 H13       -16.3755  -15.3575    8.7403 H           1 TSV       0.0260
     65 H14       -14.3253  -17.7683    6.6571 H           1 TSV       0.0260
     66 H15       -13.0137  -16.6336    6.2904 H           1 TSV       0.0260
     67 H16       -14.6078  -16.4061    5.5584 H           1 TSV       0.0260
     68 H17       -17.3898   -9.2947   13.3450 H           1 TSV       0.0450
     69 H18        -6.4399   -9.5939    4.7761 H           1 TSV       0.0373
     70 H19       -17.2017  -10.4163   11.1911 H           1 TSV       0.0388
     71 H20       -15.4788  -10.0522   11.1858 H           1 TSV       0.0388
     72 H21        -2.8864  -13.1236    5.1360 H           1 TSV       0.0607
     73 H22       -10.6648  -10.1744   10.4330 H           1 TSV       0.0803
     74 H23        -4.2014  -11.2828    4.2151 H           1 TSV       0.0580
     75 H24        -3.4423  -14.0559    7.3056 H           1 TSV       0.0604
     76 H25       -15.9298   -7.6299   11.0596 H           1 TSV       0.0285
     77 H26       -17.6629   -7.9261   11.1710 H           1 TSV       0.0285
     78 H27       -17.1215   -7.4224    8.8964 H           1 TSV       0.0267
     79 H28       -17.6450   -9.0947    8.9714 H           1 TSV       0.0267
     80 H29       -14.6718   -8.4676    9.0563 H           1 TSV       0.0267
     81 H30       -15.5034   -8.2899    7.5267 H           1 TSV       0.0267
     82 H31       -13.5484   -4.5904   16.6421 H           1 TSV       0.0559
     83 H32       -16.0567  -10.5778    7.3376 H           1 TSV       0.0312
     84 H33       -15.7567  -10.9154    9.0291 H           1 TSV       0.0312
     85 H34        -9.3550   -8.2387   10.2188 H           1 TSV       0.0342
     86 H35       -10.7417   -7.1767    9.9240 H           1 TSV       0.0342
     87 H36       -13.6596  -10.2118    6.9518 H           1 TSV       0.0799
     88 H37       -13.1780   -3.4662   13.7580 H           1 TSV       0.0285
     89 H38       -14.0487   -2.6425   15.2038 H           1 TSV       0.0285
     90 H39       -10.0539   -7.3481    7.7148 H           1 TSV       0.0673
     91 H40        -7.4029  -11.1801    8.4816 H           1 TSV       0.0367
     92 H41       -15.6284   -4.4435   15.2970 H           1 TSV       0.0285
     93 H42       -14.8232   -5.1207   13.7446 H           1 TSV       0.0285
     94 H43       -12.2535   -8.1976    7.5043 H           1 TSV       0.0553
     95 H44       -11.3654   -9.6350    6.9322 H           1 TSV       0.0553
@<TRIPOS>BOND
     1     6     1   1
     2     9     1   1
     3    37     2   1
     4     3    36  am
     5    44     3   1
     6     4    24   1
     7    36     4   1
     8    10     5  am
     9     5    14   2
    10     5    19   2
    11     5    39   1
    12     7     6   1
    13     6     9   1
    14     6    12   1
    15    27     7  am
    16    36     8   2
    17     9    15   1
    18    12    10  am
    19    49    11   2
    20    12    25   2
    21    13    28   1
    22    13    47   1
    23    51    13  am
    24    15    26   2
    25    31    16   1
    26    16    49  am
    27    16    50   1
    28    51    17   2
    29    24    18   1
    30    24    20   1
    31    27    21   2
    32    24    22   1
    33    46    23   1
    34    23    51   1
    35    26    29   1
    36    31    27   1
    37    28    40   2
    38    29    34   1
    39    32    30  ar
    40    33    30  ar
    41    43    31   1
    42    40    32  ar
    43    37    33  ar
    44    34    35   1
    45    35    38   1
    46    42    37  ar
    47    38    41   1
    48    39    45   1
    49    39    48   1
    50    42    40  ar
    51    41    44   1
    52    47    42   2
    53    43    46   1
    54    44    49   1
    55    45    48   1
    56    46    50   1
    57     1    52   1
    58     1    53   1
    59     3    54   1
    60     7    55   1
    61     9    56   1
    62    10    57   1
    63    15    58   1
    64    18    59   1
    65    18    60   1
    66    18    61   1
    67    20    62   1
    68    20    63   1
    69    20    64   1
    70    22    65   1
    71    22    66   1
    72    22    67   1
    73    26    68   1
    74    28    69   1
    75    29    70   1
    76    29    71   1
    77    30    72   1
    78    31    73   1
    79    32    74   1
    80    33    75   1
    81    34    76   1
    82    34    77   1
    83    35    78   1
    84    35    79   1
    85    38    80   1
    86    38    81   1
    87    39    82   1
    88    41    83   1
    89    41    84   1
    90    43    85   1
    91    43    86   1
    92    44    87   1
    93    45    88   1
    94    45    89   1
    95    46    90   1
    96    47    91   1
    97    48    92   1
    98    48    93   1
    99    50    94   1
   100    50    95   1
@<TRIPOS>SUBSTRUCTURE
     1  TSV      1

