@<TRIPOS>MOLECULE
3su2_ligand_033
    95   100
SMALL
GAST_HUCK
****
This file was generated by PARSER (from files_GN.cpp)

@<TRIPOS>ATOM
      1 C1         -8.8306   -6.9817   11.7803 C.3         1 TSV      -0.0069
      2 F1         -8.4473  -17.0986   11.7108 F           1 TSV      -0.1836
      3 N1        -14.0574  -11.6484   14.2201 N.am        1 TSV      -0.2412
      4 O1        -14.0485  -13.4760   15.6295 O.3         1 TSV      -0.2580
      5 S1         -9.2717   -5.6040    7.4234 S.o2        1 TSV       0.0645
      6 C2        -10.0911   -7.3135   10.9479 C.3         1 TSV       0.1453
      7 N2        -10.2910   -8.7142   10.7439 N.am        1 TSV      -0.2722
      8 O2        -14.8899  -13.7176   13.4311 O.2         1 TSV      -0.3774
      9 C3        -10.2176   -6.8790   12.4296 C.3         1 TSV       0.0105
     10 N3         -9.3714   -6.5837    8.7928 N.am        1 TSV      -0.1550
     11 O3        -12.0969  -10.1877   12.9336 O.2         1 TSV      -0.3942
     12 C4        -10.2069   -6.4221    9.8042 C.2         1 TSV       0.2463
     13 N4        -11.6173  -15.9163    9.0415 N.am        1 TSV      -0.2075
     14 O4         -8.4500   -6.4231    6.3359 O.2         1 TSV      -0.1503
     15 C5        -10.8037   -5.5877   12.7349 C.2         1 TSV      -0.0942
     16 N5        -12.7541  -11.1049   11.0286 N.am        1 TSV      -0.2469
     17 O5        -13.2807  -14.9356    7.7042 O.2         1 TSV      -0.3166
     18 C6        -15.6830  -15.2652   16.0934 C.3         1 TSV      -0.0320
     19 O6         -8.3783   -4.3391    7.7835 O.2         1 TSV      -0.1503
     20 C7        -13.2514  -15.7998   15.4512 C.3         1 TSV      -0.0320
     21 O7        -12.3242   -8.5486    9.8691 O.2         1 TSV      -0.3947
     22 C8        -13.7802  -14.6822   17.6725 C.3         1 TSV      -0.0320
     23 O8        -12.1528  -13.6311    9.2979 O.3         1 TSV      -0.2338
     24 C9        -14.1990  -14.8020   16.1791 C.3         1 TSV       0.0905
     25 O9        -11.1134   -5.6005    9.7803 O.2         1 TSV      -0.3402
     26 C10       -12.1008   -5.3940   13.0358 C.2         1 TSV      -0.0985
     27 C11       -11.3990   -9.2529   10.2582 C.2         1 TSV       0.2014
     28 C12       -11.7304  -17.1528    8.5014 C.2         1 TSV       0.0391
     29 C13       -13.1385   -6.4145   13.1473 C.3         1 TSV      -0.0365
     30 C14        -9.4879  -19.9414    9.6802 C.ar        1 TSV      -0.0639
     31 C15       -11.5816  -10.7020   10.2819 C.3         1 TSV       0.1363
     32 C16       -10.5114  -19.3557    8.9062 C.ar        1 TSV      -0.0660
     33 C17        -8.7850  -19.1737   10.6360 C.ar        1 TSV      -0.0284
     34 C18       -14.3303   -6.1899   12.1797 C.3         1 TSV      -0.0464
     35 C19       -15.5490   -7.1337   12.4137 C.3         1 TSV      -0.0513
     36 C20       -14.3455  -12.9553   14.4087 C.2         1 TSV       0.3223
     37 C21        -9.0977  -17.8096   10.8309 C.ar        1 TSV       0.1323
     38 C22       -15.3117   -8.6505   12.1396 C.3         1 TSV      -0.0487
     39 C23       -10.8281   -5.0360    6.6899 C.3         1 TSV       0.1004
     40 C24       -10.8084  -17.9963    9.1073 C.ar        1 TSV      -0.0325
     41 C25       -14.8981   -9.5065   13.3777 C.3         1 TSV      -0.0124
     42 C26       -10.1194  -17.2366   10.0493 C.ar        1 TSV       0.0028
     43 C27       -11.7726  -11.2657    8.8496 C.3         1 TSV       0.0206
     44 C28       -14.2694  -10.8926   13.0172 C.3         1 TSV       0.1330
     45 C29       -11.2776   -5.6327    5.3465 C.3         1 TSV      -0.0268
     46 C30       -12.8114  -12.3808    9.0219 C.3         1 TSV       0.1158
     47 C31       -10.6489  -15.9510    9.9876 C.2         1 TSV       0.0402
     48 C32       -12.0124   -6.0148    6.6346 C.3         1 TSV      -0.0268
     49 C33       -12.9908  -10.7476   12.3061 C.2         1 TSV       0.2064
     50 C34       -13.6306  -11.9213   10.2424 C.3         1 TSV       0.0677
     51 C35       -12.3450  -14.8292    8.6795 C.2         1 TSV       0.4317
     52 H1         -8.3265   -6.0269   11.6055 H           1 TSV       0.0300
     53 H2         -8.2276   -7.8270   12.1212 H           1 TSV       0.0300
     54 H3        -13.6308  -11.1875   14.9603 H           1 TSV       0.1899
     55 H4         -9.6047   -9.3172   11.0720 H           1 TSV       0.1841
     56 H5        -10.3795   -7.6788   13.1582 H           1 TSV       0.0435
     57 H6         -8.7136   -7.2928    8.8691 H           1 TSV       0.2148
     58 H7        -10.2046   -4.7938   12.7197 H           1 TSV       0.0452
     59 H8        -15.8288  -16.2023   16.6349 H           1 TSV       0.0260
     60 H9        -15.9805  -15.4239   15.0566 H           1 TSV       0.0260
     61 H10       -16.3409  -14.5083   16.5257 H           1 TSV       0.0260
     62 H11       -13.2746  -16.7786   15.9355 H           1 TSV       0.0260
     63 H12       -12.2246  -15.4277   15.4684 H           1 TSV       0.0260
     64 H13       -13.5494  -15.9281   14.4100 H           1 TSV       0.0260
     65 H14       -13.8704  -15.6423   18.1846 H           1 TSV       0.0260
     66 H15       -14.4094  -13.9550   18.1910 H           1 TSV       0.0260
     67 H16       -12.7441  -14.3488   17.7512 H           1 TSV       0.0260
     68 H17       -12.3764   -4.4588   13.2390 H           1 TSV       0.0450
     69 H18       -12.3775  -17.4354    7.7607 H           1 TSV       0.0373
     70 H19       -13.5076   -6.3970   14.1755 H           1 TSV       0.0388
     71 H20       -12.7383   -7.4088   12.9562 H           1 TSV       0.0388
     72 H21        -9.2522  -20.9272    9.5462 H           1 TSV       0.0607
     73 H22       -10.7103  -11.1924   10.7340 H           1 TSV       0.0803
     74 H23       -11.0217  -19.9055    8.2116 H           1 TSV       0.0580
     75 H24        -8.0437  -19.6119   11.1875 H           1 TSV       0.0604
     76 H25       -13.9808   -6.3057   11.1492 H           1 TSV       0.0285
     77 H26       -14.6839   -5.1601   12.2896 H           1 TSV       0.0285
     78 H27       -16.3369   -6.7957   11.7335 H           1 TSV       0.0267
     79 H28       -15.9299   -6.9931   13.4285 H           1 TSV       0.0267
     80 H29       -14.5689   -8.7438   11.3472 H           1 TSV       0.0267
     81 H30       -16.2392   -9.0791   11.7479 H           1 TSV       0.0267
     82 H31       -11.1191   -3.9982    6.8626 H           1 TSV       0.0559
     83 H32       -15.7963   -9.6762   13.9803 H           1 TSV       0.0312
     84 H33       -14.2042   -8.9474   14.0079 H           1 TSV       0.0312
     85 H34       -10.8332  -11.6396    8.4332 H           1 TSV       0.0342
     86 H35       -12.1770  -10.5157    8.1611 H           1 TSV       0.0342
     87 H36       -15.0124  -11.4035   12.4023 H           1 TSV       0.0799
     88 H37       -10.6820   -6.4381    4.9146 H           1 TSV       0.0285
     89 H38       -11.8259   -4.9620    4.6834 H           1 TSV       0.0285
     90 H39       -13.4507  -12.4495    8.1361 H           1 TSV       0.0673
     91 H40       -10.3378  -15.1652   10.5642 H           1 TSV       0.0367
     92 H41       -13.0035   -5.5719    6.7513 H           1 TSV       0.0285
     93 H42       -11.8378   -7.0336    6.9854 H           1 TSV       0.0285
     94 H43       -14.4953  -11.3310    9.9252 H           1 TSV       0.0553
     95 H44       -13.9763  -12.7993   10.7946 H           1 TSV       0.0553
@<TRIPOS>BOND
     1     6     1   1
     2     9     1   1
     3    37     2   1
     4     3    36  am
     5    44     3   1
     6     4    24   1
     7    36     4   1
     8    10     5  am
     9     5    14   2
    10     5    19   2
    11     5    39   1
    12     7     6   1
    13     6     9   1
    14     6    12   1
    15    27     7  am
    16    36     8   2
    17     9    15   1
    18    12    10  am
    19    49    11   2
    20    12    25   2
    21    13    28   1
    22    13    47   1
    23    51    13  am
    24    15    26   2
    25    31    16   1
    26    16    49  am
    27    16    50   1
    28    51    17   2
    29    24    18   1
    30    24    20   1
    31    27    21   2
    32    24    22   1
    33    46    23   1
    34    23    51   1
    35    26    29   1
    36    31    27   1
    37    28    40   2
    38    29    34   1
    39    32    30  ar
    40    33    30  ar
    41    43    31   1
    42    40    32  ar
    43    37    33  ar
    44    34    35   1
    45    35    38   1
    46    42    37  ar
    47    38    41   1
    48    39    45   1
    49    39    48   1
    50    42    40  ar
    51    41    44   1
    52    47    42   2
    53    43    46   1
    54    44    49   1
    55    45    48   1
    56    46    50   1
    57     1    52   1
    58     1    53   1
    59     3    54   1
    60     7    55   1
    61     9    56   1
    62    10    57   1
    63    15    58   1
    64    18    59   1
    65    18    60   1
    66    18    61   1
    67    20    62   1
    68    20    63   1
    69    20    64   1
    70    22    65   1
    71    22    66   1
    72    22    67   1
    73    26    68   1
    74    28    69   1
    75    29    70   1
    76    29    71   1
    77    30    72   1
    78    31    73   1
    79    32    74   1
    80    33    75   1
    81    34    76   1
    82    34    77   1
    83    35    78   1
    84    35    79   1
    85    38    80   1
    86    38    81   1
    87    39    82   1
    88    41    83   1
    89    41    84   1
    90    43    85   1
    91    43    86   1
    92    44    87   1
    93    45    88   1
    94    45    89   1
    95    46    90   1
    96    47    91   1
    97    48    92   1
    98    48    93   1
    99    50    94   1
   100    50    95   1
@<TRIPOS>SUBSTRUCTURE
     1  TSV      1

