@<TRIPOS>MOLECULE
3su2_ligand_013
    95   100
SMALL
GAST_HUCK
****
This file was generated by PARSER (from files_GN.cpp)

@<TRIPOS>ATOM
      1 C1        -11.7286   -6.7779   15.7722 C.3         1 TSV      -0.0069
      2 F1        -17.1609  -19.0707   12.3845 F           1 TSV      -0.1836
      3 N1        -18.6152   -9.1933   14.8922 N.am        1 TSV      -0.2412
      4 O1        -20.1645  -10.3481   16.1376 O.3         1 TSV      -0.2580
      5 S1         -9.2045   -6.8879   11.7837 S.o2        1 TSV       0.0645
      6 C2        -12.2737   -7.0256   14.3482 C.3         1 TSV       0.1453
      7 N2        -12.8318   -8.3198   14.1309 N.am        1 TSV      -0.2722
      8 O2        -19.5634  -11.1771   14.0066 O.2         1 TSV      -0.3774
      9 C3        -13.0703   -6.1579   15.3516 C.3         1 TSV       0.0105
     10 N3        -10.3488   -7.2893   12.9542 N.am        1 TSV      -0.1550
     11 O3        -15.9081   -8.7537   14.9094 O.2         1 TSV      -0.3942
     12 C4        -11.3497   -6.5134   13.3496 C.2         1 TSV       0.2463
     13 N4        -15.6694  -15.0364   12.3098 N.am        1 TSV      -0.2075
     14 O4         -9.9131   -6.3659   10.4570 O.2         1 TSV      -0.1503
     15 C5        -13.1942   -4.7325   15.1070 C.2         1 TSV      -0.0942
     16 N5        -15.7164   -9.8620   13.0016 N.am        1 TSV      -0.2469
     17 O5        -16.8830  -13.7133   10.7848 O.2         1 TSV      -0.3166
     18 C6        -22.1852  -11.5452   15.4208 C.3         1 TSV      -0.0320
     19 O6         -8.5594   -8.2681   11.3293 O.2         1 TSV      -0.1503
     20 C7        -20.5481  -12.5887   17.1052 C.3         1 TSV      -0.0320
     21 O7        -13.8827   -7.8085   12.2484 O.2         1 TSV      -0.3947
     22 C8        -21.9164  -10.5355   17.7368 C.3         1 TSV      -0.0320
     23 O8        -15.0707  -12.7890   11.9469 O.3         1 TSV      -0.2338
     24 C9        -21.1821  -11.2680   16.5787 C.3         1 TSV       0.0905
     25 O9        -11.5686   -5.4218   12.8330 O.2         1 TSV      -0.3402
     26 C10       -14.2809   -4.1401   14.5783 C.2         1 TSV      -0.0985
     27 C11       -13.6242   -8.6330   13.1156 C.2         1 TSV       0.2014
     28 C12       -14.6984  -15.2890   13.2204 C.2         1 TSV       0.0391
     29 C13       -15.5256   -4.7856   14.1767 C.3         1 TSV      -0.0365
     30 C14       -14.3407  -18.7516   14.6708 C.ar        1 TSV      -0.0639
     31 C15       -14.2739   -9.9432   13.0560 C.3         1 TSV       0.1363
     32 C16       -14.0130  -17.3890   14.5014 C.ar        1 TSV      -0.0660
     33 C17       -15.4118  -19.3259   13.9518 C.ar        1 TSV      -0.0284
     34 C18       -15.9054   -4.5231   12.6942 C.3         1 TSV      -0.0464
     35 C19       -17.2798   -5.1106   12.2492 C.3         1 TSV      -0.0513
     36 C20       -19.4310  -10.2654   14.9979 C.2         1 TSV       0.3223
     37 C21       -16.1723  -18.5444   13.0536 C.ar        1 TSV       0.1323
     38 C22       -17.3980   -6.6654   12.2693 C.3         1 TSV      -0.0487
     39 C23        -7.8378   -5.8210   12.3076 C.3         1 TSV       0.1004
     40 C24       -14.7768  -16.6232   13.6032 C.ar        1 TSV      -0.0325
     41 C25       -18.0348   -7.2476   13.5645 C.3         1 TSV      -0.0124
     42 C26       -15.8348  -17.1869   12.8953 C.ar        1 TSV       0.0028
     43 C27       -13.8452  -10.7172   11.7815 C.3         1 TSV       0.0206
     44 C28       -17.8678   -8.7930   13.7319 C.3         1 TSV       0.1330
     45 C29        -8.0823   -4.3078   12.3858 C.3         1 TSV      -0.0268
     46 C30       -15.1064  -11.4801   11.3613 C.3         1 TSV       0.1158
     47 C31       -16.3710  -16.1764   12.1048 C.2         1 TSV       0.0402
     48 C32        -7.9557   -5.1284   13.6782 C.3         1 TSV      -0.0268
     49 C33       -16.4577   -9.1819   13.8990 C.2         1 TSV       0.2064
     50 C34       -16.2543  -10.5963   11.8958 C.3         1 TSV       0.0677
     51 C35       -15.8875  -13.8463   11.6934 C.2         1 TSV       0.4317
     52 H1        -10.9062   -6.0626   15.9014 H           1 TSV       0.0300
     53 H2        -11.7976   -7.6192   16.4659 H           1 TSV       0.0300
     54 H3        -18.6045   -8.5849   15.6534 H           1 TSV       0.1899
     55 H4        -12.6780   -8.9943   14.8146 H           1 TSV       0.1841
     56 H5        -13.8972   -6.6449   15.8776 H           1 TSV       0.0435
     57 H6        -10.2523   -8.1650   13.3689 H           1 TSV       0.2148
     58 H7        -12.4216   -4.1558   15.3469 H           1 TSV       0.0452
     59 H8        -23.0115  -12.1725   15.7691 H           1 TSV       0.0260
     60 H9        -21.6931  -12.0581   14.5938 H           1 TSV       0.0260
     61 H10       -22.5981  -10.6074   15.0422 H           1 TSV       0.0260
     62 H11       -21.3176  -13.2453   17.5149 H           1 TSV       0.0260
     63 H12       -19.8206  -12.3725   17.8925 H           1 TSV       0.0260
     64 H13       -20.0362  -13.1207   16.3029 H           1 TSV       0.0260
     65 H14       -22.7047  -11.1640   18.1596 H           1 TSV       0.0260
     66 H15       -22.3689   -9.6127   17.3716 H           1 TSV       0.0260
     67 H16       -21.2150  -10.2769   18.5355 H           1 TSV       0.0260
     68 H17       -14.2482   -3.1502   14.4831 H           1 TSV       0.0450
     69 H18       -14.0087  -14.6223   13.5742 H           1 TSV       0.0373
     70 H19       -16.3248   -4.4048   14.8179 H           1 TSV       0.0388
     71 H20       -15.4715   -5.8640   14.3175 H           1 TSV       0.0388
     72 H21       -13.7963  -19.3272   15.3184 H           1 TSV       0.0607
     73 H22       -14.0015  -10.5388   13.9326 H           1 TSV       0.0803
     74 H23       -13.2366  -16.9701   15.0180 H           1 TSV       0.0580
     75 H24       -15.6363  -20.3146   14.0820 H           1 TSV       0.0604
     76 H25       -15.1244   -4.9276   12.0436 H           1 TSV       0.0285
     77 H26       -15.9411   -3.4423   12.5297 H           1 TSV       0.0285
     78 H27       -17.4461   -4.7797   11.2175 H           1 TSV       0.0267
     79 H28       -18.0773   -4.6671   12.8501 H           1 TSV       0.0267
     80 H29       -16.4109   -7.0945   12.1035 H           1 TSV       0.0267
     81 H30       -18.0214   -6.9816   11.4270 H           1 TSV       0.0267
     82 H31        -6.8207   -6.1012   12.0151 H           1 TSV       0.0559
     83 H32       -19.1021   -7.0160   13.5383 H           1 TSV       0.0312
     84 H33       -17.6272   -6.7497   14.4460 H           1 TSV       0.0312
     85 H34       -13.0048  -11.3854   11.9837 H           1 TSV       0.0342
     86 H35       -13.5562  -10.0466   10.9644 H           1 TSV       0.0342
     87 H36       -18.2917   -9.2497   12.8366 H           1 TSV       0.0799
     88 H37        -9.0867   -3.9463   12.1696 H           1 TSV       0.0285
     89 H38        -7.2288   -3.6592   12.1910 H           1 TSV       0.0285
     90 H39       -15.1494  -11.5754   10.2725 H           1 TSV       0.0673
     91 H40       -17.1605  -16.2938   11.4666 H           1 TSV       0.0367
     92 H41        -7.0226   -4.9773   14.2323 H           1 TSV       0.0285
     93 H42        -8.8955   -5.2431   14.2349 H           1 TSV       0.0285
     94 H43       -16.5911   -9.9023   11.1218 H           1 TSV       0.0553
     95 H44       -17.0911  -11.2284   12.2024 H           1 TSV       0.0553
@<TRIPOS>BOND
     1     6     1   1
     2     9     1   1
     3    37     2   1
     4     3    36  am
     5    44     3   1
     6     4    24   1
     7    36     4   1
     8    10     5  am
     9     5    14   2
    10     5    19   2
    11     5    39   1
    12     7     6   1
    13     6     9   1
    14     6    12   1
    15    27     7  am
    16    36     8   2
    17     9    15   1
    18    12    10  am
    19    49    11   2
    20    12    25   2
    21    13    28   1
    22    13    47   1
    23    51    13  am
    24    15    26   2
    25    31    16   1
    26    16    49  am
    27    16    50   1
    28    51    17   2
    29    24    18   1
    30    24    20   1
    31    27    21   2
    32    24    22   1
    33    46    23   1
    34    23    51   1
    35    26    29   1
    36    31    27   1
    37    28    40   2
    38    29    34   1
    39    32    30  ar
    40    33    30  ar
    41    43    31   1
    42    40    32  ar
    43    37    33  ar
    44    34    35   1
    45    35    38   1
    46    42    37  ar
    47    38    41   1
    48    39    45   1
    49    39    48   1
    50    42    40  ar
    51    41    44   1
    52    47    42   2
    53    43    46   1
    54    44    49   1
    55    45    48   1
    56    46    50   1
    57     1    52   1
    58     1    53   1
    59     3    54   1
    60     7    55   1
    61     9    56   1
    62    10    57   1
    63    15    58   1
    64    18    59   1
    65    18    60   1
    66    18    61   1
    67    20    62   1
    68    20    63   1
    69    20    64   1
    70    22    65   1
    71    22    66   1
    72    22    67   1
    73    26    68   1
    74    28    69   1
    75    29    70   1
    76    29    71   1
    77    30    72   1
    78    31    73   1
    79    32    74   1
    80    33    75   1
    81    34    76   1
    82    34    77   1
    83    35    78   1
    84    35    79   1
    85    38    80   1
    86    38    81   1
    87    39    82   1
    88    41    83   1
    89    41    84   1
    90    43    85   1
    91    43    86   1
    92    44    87   1
    93    45    88   1
    94    45    89   1
    95    46    90   1
    96    47    91   1
    97    48    92   1
    98    48    93   1
    99    50    94   1
   100    50    95   1
@<TRIPOS>SUBSTRUCTURE
     1  TSV      1

