@<TRIPOS>MOLECULE
3su2_ligand_023
    95   100
SMALL
GAST_HUCK
****
This file was generated by PARSER (from files_GN.cpp)

@<TRIPOS>ATOM
      1 C1        -14.0445   -3.3276   14.4818 C.3         1 TSV      -0.0069
      2 F1         -7.2718  -10.1508    4.6462 F           1 TSV      -0.1836
      3 N1        -12.8884  -10.3663   12.1730 N.am        1 TSV      -0.2412
      4 O1        -12.6569  -12.5023   13.0463 O.3         1 TSV      -0.2580
      5 S1        -15.4992   -1.4573    9.8921 S.o2        1 TSV       0.0645
      6 C2        -14.0055   -3.5711   12.9513 C.3         1 TSV       0.1453
      7 N2        -12.8455   -4.2903   12.5065 N.am        1 TSV      -0.2722
      8 O2        -14.0197  -12.1706   11.1525 O.2         1 TSV      -0.3774
      9 C3        -14.9028   -4.4474   13.8719 C.3         1 TSV       0.0105
     10 N3        -15.0459   -2.6960   10.9567 N.am        1 TSV      -0.1550
     11 O3        -12.9319   -7.6815   12.8322 O.2         1 TSV      -0.3942
     12 C4        -14.5265   -2.4631   12.1576 C.2         1 TSV       0.2463
     13 N4         -8.2987   -6.3748    6.4567 N.am        1 TSV      -0.2075
     14 O4        -14.2357   -0.9640    9.0583 O.2         1 TSV      -0.1503
     15 C5        -16.3468   -4.2892   13.8875 C.2         1 TSV      -0.0942
     16 N5        -12.1249   -7.2292   10.8217 N.am        1 TSV      -0.2469
     17 O5         -9.2124   -4.4974    7.5441 O.2         1 TSV      -0.3166
     18 C6        -14.3435  -14.2489   13.4356 C.3         1 TSV      -0.0320
     19 O6        -16.0494   -0.2145   10.7265 O.2         1 TSV      -0.1503
     20 C7        -12.1655  -14.7741   12.1823 C.3         1 TSV      -0.0320
     21 O7        -13.6174   -4.8664   10.5043 O.2         1 TSV      -0.3947
     22 C8        -12.1118  -14.1813   14.6508 C.3         1 TSV      -0.0320
     23 O8        -10.1235   -6.6315    7.9200 O.3         1 TSV      -0.2338
     24 C9        -12.8288  -13.9126   13.3024 C.3         1 TSV       0.0905
     25 O9        -14.3520   -1.3166   12.5676 O.2         1 TSV      -0.3402
     26 C10       -17.2272   -5.2111   13.4563 C.2         1 TSV      -0.0985
     27 C11       -12.7430   -4.9717   11.3694 C.2         1 TSV       0.2014
     28 C12        -7.2986   -5.7147    5.8304 C.2         1 TSV       0.0391
     29 C13       -16.9264   -6.5188   12.8823 C.3         1 TSV      -0.0365
     30 C14        -4.9840   -7.5597    3.4965 C.ar        1 TSV      -0.0639
     31 C15       -11.6396   -5.9191   11.2005 C.3         1 TSV       0.1363
     32 C16        -5.4715   -6.4395    4.1993 C.ar        1 TSV      -0.0660
     33 C17        -5.5945   -8.8251    3.6488 C.ar        1 TSV      -0.0284
     34 C18       -17.4468   -6.6410   11.4261 C.3         1 TSV      -0.0464
     35 C19       -17.1525   -7.9939   10.7187 C.3         1 TSV      -0.0513
     36 C20       -13.1925  -11.6794   12.1082 C.2         1 TSV       0.3223
     37 C21        -6.7027   -8.9845    4.5111 C.ar        1 TSV       0.1323
     38 C22       -15.6447   -8.2728   10.4326 C.3         1 TSV      -0.0487
     39 C23       -16.8122   -1.8450    8.7100 C.3         1 TSV       0.1004
     40 C24        -6.5831   -6.6092    5.0469 C.ar        1 TSV      -0.0325
     41 C25       -14.9755   -9.2341   11.4559 C.3         1 TSV      -0.0124
     42 C26        -7.1811   -7.8568    5.2050 C.ar        1 TSV       0.0028
     43 C27       -10.6638   -5.5106   10.0751 C.3         1 TSV       0.0206
     44 C28       -13.4182   -9.3290   11.3278 C.3         1 TSV       0.1330
     45 C29       -16.4620   -2.8218    7.5774 C.3         1 TSV      -0.0268
     46 C30       -11.1653   -6.2801    8.8441 C.3         1 TSV       0.1158
     47 C31        -8.2329   -7.6832    6.0974 C.2         1 TSV       0.0402
     48 C32       -17.4339   -3.2517    8.6869 C.3         1 TSV      -0.0268
     49 C33       -12.7839   -8.0461   11.6677 C.2         1 TSV       0.2064
     50 C34       -11.8355   -7.5318    9.4477 C.3         1 TSV       0.0677
     51 C35        -9.2130   -5.8335    7.2977 C.2         1 TSV       0.4317
     52 H1        -14.5839   -2.4540   14.8556 H           1 TSV       0.0300
     53 H2        -13.1636   -3.6533   15.0419 H           1 TSV       0.0300
     54 H3        -12.2583  -10.0998   12.8663 H           1 TSV       0.1899
     55 H4        -12.1441   -4.4191   13.1699 H           1 TSV       0.1841
     56 H5        -14.5045   -5.4175   14.1839 H           1 TSV       0.0435
     57 H6        -15.0456   -3.6274   10.6428 H           1 TSV       0.2148
     58 H7        -16.7177   -3.4583   14.2836 H           1 TSV       0.0452
     59 H8        -14.4855  -15.2936   13.7269 H           1 TSV       0.0260
     60 H9        -14.8667  -14.0854   12.4921 H           1 TSV       0.0260
     61 H10       -14.8059  -13.6127   14.1954 H           1 TSV       0.0260
     62 H11       -12.1887  -15.8338   12.4485 H           1 TSV       0.0260
     63 H12       -11.1256  -14.4746   12.0408 H           1 TSV       0.0260
     64 H13       -12.6879  -14.6563   11.2325 H           1 TSV       0.0260
     65 H14       -12.1907  -15.2332   14.9368 H           1 TSV       0.0260
     66 H15       -12.5575  -13.5751   15.4432 H           1 TSV       0.0260
     67 H16       -11.0529  -13.9224   14.5776 H           1 TSV       0.0260
     68 H17       -18.1898   -4.9869   13.5555 H           1 TSV       0.0450
     69 H18        -7.0914   -4.7147    5.9064 H           1 TSV       0.0373
     70 H19       -17.4025   -7.2844   13.5034 H           1 TSV       0.0388
     71 H20       -15.8563   -6.7167   12.8802 H           1 TSV       0.0388
     72 H21        -4.1860   -7.4560    2.8640 H           1 TSV       0.0607
     73 H22       -11.0538   -5.9859   12.1304 H           1 TSV       0.0803
     74 H23        -5.0309   -5.5236    4.0927 H           1 TSV       0.0580
     75 H24        -5.2342   -9.6259    3.1256 H           1 TSV       0.0604
     76 H25       -17.0003   -5.8352   10.8296 H           1 TSV       0.0285
     77 H26       -18.5333   -6.4916   11.4333 H           1 TSV       0.0285
     78 H27       -17.6759   -7.9653    9.7587 H           1 TSV       0.0267
     79 H28       -17.5978   -8.8112   11.2955 H           1 TSV       0.0267
     80 H29       -15.1005   -7.3282   10.3968 H           1 TSV       0.0267
     81 H30       -15.5507   -8.7295    9.4429 H           1 TSV       0.0267
     82 H31       -17.4734   -1.0300    8.4030 H           1 TSV       0.0559
     83 H32       -15.4232  -10.2179   11.3026 H           1 TSV       0.0312
     84 H33       -15.2281   -8.9349   12.4767 H           1 TSV       0.0312
     85 H34        -9.6521   -5.8424   10.3353 H           1 TSV       0.0342
     86 H35       -10.6416   -4.4297    9.9024 H           1 TSV       0.0342
     87 H36       -13.1842   -9.6174   10.2977 H           1 TSV       0.0799
     88 H37       -15.4798   -3.2984    7.6083 H           1 TSV       0.0285
     89 H38       -16.9243   -2.6052    6.6120 H           1 TSV       0.0285
     90 H39       -11.9179   -5.6796    8.3174 H           1 TSV       0.0673
     91 H40        -8.8621   -8.4256    6.4090 H           1 TSV       0.0367
     92 H41       -18.4917   -3.2989    8.4044 H           1 TSV       0.0285
     93 H42       -17.0327   -3.9736    9.4038 H           1 TSV       0.0285
     94 H43       -12.7434   -7.7654    8.8832 H           1 TSV       0.0553
     95 H44       -11.1513   -8.3839    9.4045 H           1 TSV       0.0553
@<TRIPOS>BOND
     1     6     1   1
     2     9     1   1
     3    37     2   1
     4     3    36  am
     5    44     3   1
     6     4    24   1
     7    36     4   1
     8    10     5  am
     9     5    14   2
    10     5    19   2
    11     5    39   1
    12     7     6   1
    13     6     9   1
    14     6    12   1
    15    27     7  am
    16    36     8   2
    17     9    15   1
    18    12    10  am
    19    49    11   2
    20    12    25   2
    21    13    28   1
    22    13    47   1
    23    51    13  am
    24    15    26   2
    25    31    16   1
    26    16    49  am
    27    16    50   1
    28    51    17   2
    29    24    18   1
    30    24    20   1
    31    27    21   2
    32    24    22   1
    33    46    23   1
    34    23    51   1
    35    26    29   1
    36    31    27   1
    37    28    40   2
    38    29    34   1
    39    32    30  ar
    40    33    30  ar
    41    43    31   1
    42    40    32  ar
    43    37    33  ar
    44    34    35   1
    45    35    38   1
    46    42    37  ar
    47    38    41   1
    48    39    45   1
    49    39    48   1
    50    42    40  ar
    51    41    44   1
    52    47    42   2
    53    43    46   1
    54    44    49   1
    55    45    48   1
    56    46    50   1
    57     1    52   1
    58     1    53   1
    59     3    54   1
    60     7    55   1
    61     9    56   1
    62    10    57   1
    63    15    58   1
    64    18    59   1
    65    18    60   1
    66    18    61   1
    67    20    62   1
    68    20    63   1
    69    20    64   1
    70    22    65   1
    71    22    66   1
    72    22    67   1
    73    26    68   1
    74    28    69   1
    75    29    70   1
    76    29    71   1
    77    30    72   1
    78    31    73   1
    79    32    74   1
    80    33    75   1
    81    34    76   1
    82    34    77   1
    83    35    78   1
    84    35    79   1
    85    38    80   1
    86    38    81   1
    87    39    82   1
    88    41    83   1
    89    41    84   1
    90    43    85   1
    91    43    86   1
    92    44    87   1
    93    45    88   1
    94    45    89   1
    95    46    90   1
    96    47    91   1
    97    48    92   1
    98    48    93   1
    99    50    94   1
   100    50    95   1
@<TRIPOS>SUBSTRUCTURE
     1  TSV      1

