@<TRIPOS>MOLECULE
3su2_ligand_040
    95   100
SMALL
GAST_HUCK
****
This file was generated by PARSER (from files_GN.cpp)

@<TRIPOS>ATOM
      1 C1        -13.1175  -12.8736   14.4186 C.3         1 TSV      -0.0069
      2 F1         -6.3325  -10.3065    6.7049 F           1 TSV      -0.1836
      3 N1        -11.9974  -15.6127    7.5389 N.am        1 TSV      -0.2412
      4 O1        -10.0216  -16.1400    6.4803 O.3         1 TSV      -0.2580
      5 S1        -16.5599   -9.4022   14.0574 S.o2        1 TSV       0.0645
      6 C2        -14.0427  -12.4466   13.2538 C.3         1 TSV       0.1453
      7 N2        -13.3517  -11.9505   12.0973 N.am        1 TSV      -0.2722
      8 O2        -11.1903  -14.1877    5.8283 O.2         1 TSV      -0.3774
      9 C3        -13.7273  -13.9473   13.5021 C.3         1 TSV       0.0105
     10 N3        -15.3200  -10.4239   13.5277 N.am        1 TSV      -0.1550
     11 O3        -12.3482  -14.1622    9.8692 O.2         1 TSV      -0.3942
     12 C4        -15.2239  -11.7275   13.7360 C.2         1 TSV       0.2463
     13 N4        -10.2497   -8.5640    6.2815 N.am        1 TSV      -0.2075
     14 O4        -16.0271   -8.5385   15.2814 O.2         1 TSV      -0.1503
     15 C5        -14.7578  -14.8390   13.9997 C.2         1 TSV      -0.0942
     16 N5        -13.0888  -12.4685    8.6541 N.am        1 TSV      -0.2469
     17 O5        -12.5103   -7.9302    6.1722 O.2         1 TSV      -0.3166
     18 C6         -9.3365  -16.3159    4.1298 C.3         1 TSV      -0.0320
     19 O6        -17.8240  -10.1903   14.6128 O.2         1 TSV      -0.1503
     20 C7         -8.0134  -14.8733    5.7931 C.3         1 TSV      -0.0320
     21 O7        -15.0554  -12.1159   10.6909 O.2         1 TSV      -0.3947
     22 C8         -8.0507  -17.4076    6.0396 C.3         1 TSV      -0.0320
     23 O8        -11.9230   -9.9285    7.2454 O.3         1 TSV      -0.2338
     24 C9         -8.8727  -16.1598    5.6074 C.3         1 TSV       0.0905
     25 O9        -16.1010  -12.3270   14.3488 O.2         1 TSV      -0.3402
     26 C10       -15.4918  -15.6574   13.2232 C.2         1 TSV      -0.0985
     27 C11       -13.8713  -11.8592   10.8815 C.2         1 TSV       0.2014
     28 C12        -9.7746   -7.4518    5.6728 C.2         1 TSV       0.0391
     29 C13       -15.3704  -15.8433   11.7821 C.3         1 TSV      -0.0365
     30 C14        -6.0734   -7.0487    5.0873 C.ar        1 TSV      -0.0639
     31 C15       -13.0352  -11.5040    9.7338 C.3         1 TSV       0.1363
     32 C16        -7.4299   -6.6678    5.0424 C.ar        1 TSV      -0.0660
     33 C17        -5.6986   -8.2921    5.6505 C.ar        1 TSV      -0.0284
     34 C18       -16.6826  -15.5323   11.0125 C.3         1 TSV      -0.0464
     35 C19       -16.6609  -15.9060    9.5005 C.3         1 TSV      -0.0513
     36 C20       -11.0742  -15.2929    6.6035 C.2         1 TSV       0.3223
     37 C21        -6.6761   -9.1608    6.1811 C.ar        1 TSV       0.1323
     38 C22       -15.6541  -15.1145    8.6151 C.3         1 TSV      -0.0487
     39 C23       -17.2076   -8.2806   12.7961 C.3         1 TSV       0.1004
     40 C24        -8.3941   -7.5460    5.5742 C.ar        1 TSV      -0.0325
     41 C25       -14.2673  -15.7969    8.4133 C.3         1 TSV      -0.0124
     42 C26        -8.0289   -8.7651    6.1373 C.ar        1 TSV       0.0028
     43 C27       -13.4892  -10.1613    9.1047 C.3         1 TSV       0.0206
     44 C28       -13.1663  -14.8449    7.8513 C.3         1 TSV       0.1330
     45 C29       -16.6734   -8.3763   11.3601 C.3         1 TSV      -0.0268
     46 C30       -13.2564  -10.3441    7.5987 C.3         1 TSV       0.1158
     47 C31        -9.2028   -9.3723    6.5706 C.2         1 TSV       0.0402
     48 C32       -18.0782   -8.8960   11.6874 C.3         1 TSV      -0.0268
     49 C33       -12.8331  -13.7816    8.8092 C.2         1 TSV       0.2064
     50 C34       -13.4323  -11.8610    7.4008 C.3         1 TSV       0.0677
     51 C35       -11.5565   -8.8147    6.5553 C.2         1 TSV       0.4317
     52 H1        -13.5168  -12.8411   15.4365 H           1 TSV       0.0300
     53 H2        -12.0479  -12.7043   14.2809 H           1 TSV       0.0300
     54 H3        -11.8546  -16.4341    8.0421 H           1 TSV       0.1899
     55 H4        -12.4058  -11.7526   12.1985 H           1 TSV       0.1841
     56 H5        -12.9553  -14.4009   12.8735 H           1 TSV       0.0435
     57 H6        -14.5989   -9.9960   13.0375 H           1 TSV       0.2148
     58 H7        -14.9364  -14.8421   14.9791 H           1 TSV       0.0452
     59 H8         -8.4815  -16.4907    3.4723 H           1 TSV       0.0260
     60 H9         -9.8615  -15.4201    3.7909 H           1 TSV       0.0260
     61 H10       -10.0168  -17.1648    4.0367 H           1 TSV       0.0260
     62 H11        -7.0857  -14.9439    5.2201 H           1 TSV       0.0260
     63 H12        -7.7544  -14.7382    6.8451 H           1 TSV       0.0260
     64 H13        -8.5598  -13.9887    5.4599 H           1 TSV       0.0260
     65 H14        -7.1742  -17.5436    5.4023 H           1 TSV       0.0260
     66 H15        -8.6637  -18.3096    5.9746 H           1 TSV       0.0260
     67 H16        -7.7090  -17.3081    7.0728 H           1 TSV       0.0260
     68 H17       -16.1669  -16.2227   13.6855 H           1 TSV       0.0450
     69 H18       -10.3244   -6.6562    5.3411 H           1 TSV       0.0373
     70 H19       -15.0945  -16.8856   11.6035 H           1 TSV       0.0388
     71 H20       -14.5834  -15.2157   11.3657 H           1 TSV       0.0388
     72 H21        -5.3563   -6.4247    4.7105 H           1 TSV       0.0607
     73 H22       -11.9863  -11.4121   10.0415 H           1 TSV       0.0803
     74 H23        -7.7071   -5.7703    4.6359 H           1 TSV       0.0580
     75 H24        -4.7102   -8.5540    5.6787 H           1 TSV       0.0604
     76 H25       -16.9124  -14.4647   11.1120 H           1 TSV       0.0285
     77 H26       -17.5038  -16.0856   11.4792 H           1 TSV       0.0285
     78 H27       -17.6662  -15.7086    9.1171 H           1 TSV       0.0267
     79 H28       -16.4893  -16.9816    9.3910 H           1 TSV       0.0267
     80 H29       -15.5324  -14.1179    9.0397 H           1 TSV       0.0267
     81 H30       -16.0994  -14.9765    7.6248 H           1 TSV       0.0267
     82 H31       -17.5359   -7.2887   13.1175 H           1 TSV       0.0559
     83 H32       -14.4032  -16.6275    7.7085 H           1 TSV       0.0312
     84 H33       -13.9136  -16.2342    9.3490 H           1 TSV       0.0312
     85 H34       -12.9254   -9.3153    9.5034 H           1 TSV       0.0342
     86 H35       -14.5554   -9.9713    9.2678 H           1 TSV       0.0342
     87 H36       -13.5698  -14.4404    6.9197 H           1 TSV       0.0799
     88 H37       -15.9369   -9.1533   11.1462 H           1 TSV       0.0285
     89 H38       -16.6501   -7.4424   10.7915 H           1 TSV       0.0285
     90 H39       -14.0085   -9.7980    7.0210 H           1 TSV       0.0673
     91 H40        -9.2492  -10.2854    7.0280 H           1 TSV       0.0367
     92 H41       -18.9001   -8.2730   11.3251 H           1 TSV       0.0285
     93 H42       -18.1899   -9.9830   11.6815 H           1 TSV       0.0285
     94 H43       -14.4711  -12.0971    7.1525 H           1 TSV       0.0553
     95 H44       -12.7796  -12.1914    6.5920 H           1 TSV       0.0553
@<TRIPOS>BOND
     1     6     1   1
     2     9     1   1
     3    37     2   1
     4     3    36  am
     5    44     3   1
     6     4    24   1
     7    36     4   1
     8    10     5  am
     9     5    14   2
    10     5    19   2
    11     5    39   1
    12     7     6   1
    13     6     9   1
    14     6    12   1
    15    27     7  am
    16    36     8   2
    17     9    15   1
    18    12    10  am
    19    49    11   2
    20    12    25   2
    21    13    28   1
    22    13    47   1
    23    51    13  am
    24    15    26   2
    25    31    16   1
    26    16    49  am
    27    16    50   1
    28    51    17   2
    29    24    18   1
    30    24    20   1
    31    27    21   2
    32    24    22   1
    33    46    23   1
    34    23    51   1
    35    26    29   1
    36    31    27   1
    37    28    40   2
    38    29    34   1
    39    32    30  ar
    40    33    30  ar
    41    43    31   1
    42    40    32  ar
    43    37    33  ar
    44    34    35   1
    45    35    38   1
    46    42    37  ar
    47    38    41   1
    48    39    45   1
    49    39    48   1
    50    42    40  ar
    51    41    44   1
    52    47    42   2
    53    43    46   1
    54    44    49   1
    55    45    48   1
    56    46    50   1
    57     1    52   1
    58     1    53   1
    59     3    54   1
    60     7    55   1
    61     9    56   1
    62    10    57   1
    63    15    58   1
    64    18    59   1
    65    18    60   1
    66    18    61   1
    67    20    62   1
    68    20    63   1
    69    20    64   1
    70    22    65   1
    71    22    66   1
    72    22    67   1
    73    26    68   1
    74    28    69   1
    75    29    70   1
    76    29    71   1
    77    30    72   1
    78    31    73   1
    79    32    74   1
    80    33    75   1
    81    34    76   1
    82    34    77   1
    83    35    78   1
    84    35    79   1
    85    38    80   1
    86    38    81   1
    87    39    82   1
    88    41    83   1
    89    41    84   1
    90    43    85   1
    91    43    86   1
    92    44    87   1
    93    45    88   1
    94    45    89   1
    95    46    90   1
    96    47    91   1
    97    48    92   1
    98    48    93   1
    99    50    94   1
   100    50    95   1
@<TRIPOS>SUBSTRUCTURE
     1  TSV      1

