@<TRIPOS>MOLECULE
3su2_ligand_007
    95   100
SMALL
GAST_HUCK
****
This file was generated by PARSER (from files_GN.cpp)

@<TRIPOS>ATOM
      1 C1        -16.4231   -6.2546    9.1705 C.3         1 TSV      -0.0069
      2 F1        -14.3964  -15.5831   19.1666 F           1 TSV      -0.1836
      3 N1        -10.3223   -7.0627   13.5220 N.am        1 TSV      -0.2412
      4 O1         -8.3910   -6.3879   12.4464 O.3         1 TSV      -0.2580
      5 S1        -19.6866   -6.8363   13.1339 S.o2        1 TSV       0.0645
      6 C2        -16.5887   -6.8405   10.5927 C.3         1 TSV       0.1453
      7 N2        -15.7433   -7.9506   10.8905 N.am        1 TSV      -0.2722
      8 O2        -10.3786   -5.1714   12.0849 O.2         1 TSV      -0.3774
      9 C3        -15.7860   -5.5312   10.3686 C.3         1 TSV       0.0105
     10 N3        -18.1891   -6.6742   12.3667 N.am        1 TSV      -0.1550
     11 O3        -12.6429   -7.2001   11.8938 O.2         1 TSV      -0.3942
     12 C4        -17.9568   -6.8705   11.0786 C.2         1 TSV       0.2463
     13 N4        -13.1231  -13.9532   15.3853 N.am        1 TSV      -0.2075
     14 O4        -20.8816   -6.4772   12.1520 O.2         1 TSV      -0.1503
     15 C5        -16.3190   -4.2419   10.7710 C.2         1 TSV      -0.0942
     16 N5        -13.3449   -8.8088   13.2366 N.am        1 TSV      -0.2469
     17 O5        -12.4716  -12.6656   13.5287 O.2         1 TSV      -0.3166
     18 C6         -6.0649   -6.3196   11.8918 C.3         1 TSV      -0.0320
     19 O6        -19.7133   -5.6180   14.1641 O.2         1 TSV      -0.1503
     20 C7         -7.8047   -5.6225   10.1675 C.3         1 TSV      -0.0320
     21 O7        -15.9108   -7.8024   13.1036 O.2         1 TSV      -0.3947
     22 C8         -7.3752   -4.1618   12.2274 C.3         1 TSV      -0.0320
     23 O8        -14.1535  -11.8715   14.9661 O.3         1 TSV      -0.2338
     24 C9         -7.4377   -5.6173   11.6804 C.3         1 TSV       0.0905
     25 O9        -18.8483   -7.2222   10.3076 O.2         1 TSV      -0.3402
     26 C10       -15.8726   -3.5252   11.8187 C.2         1 TSV      -0.0985
     27 C11       -15.4032   -8.3308   12.1189 C.2         1 TSV       0.2014
     28 C12       -12.3692  -15.0373   15.0830 C.2         1 TSV       0.0391
     29 C13       -14.8248   -3.9026   12.7604 C.3         1 TSV      -0.0365
     30 C14       -12.2012  -17.9474   17.4751 C.ar        1 TSV      -0.0639
     31 C15       -14.3315   -9.3045   12.2991 C.3         1 TSV       0.1363
     32 C16       -11.9189  -17.2479   16.2837 C.ar        1 TSV      -0.0660
     33 C17       -13.0365  -17.3767   18.4634 C.ar        1 TSV      -0.0284
     34 C18       -15.3253   -3.9385   14.2277 C.3         1 TSV      -0.0464
     35 C19       -14.2209   -4.2422   15.2847 C.3         1 TSV      -0.0513
     36 C20        -9.7162   -6.2017   12.6686 C.2         1 TSV       0.3223
     37 C21       -13.6162  -16.1063   18.2597 C.ar        1 TSV       0.1323
     38 C22       -13.5408   -5.6431   15.1793 C.3         1 TSV      -0.0487
     39 C23       -20.0674   -8.3003   14.1291 C.3         1 TSV       0.1004
     40 C24       -12.4865  -15.9727   16.1032 C.ar        1 TSV      -0.0325
     41 C25       -12.1960   -5.6490   14.3885 C.3         1 TSV      -0.0124
     42 C26       -13.3279  -15.4193   17.0650 C.ar        1 TSV       0.0028
     43 C27       -14.8511  -10.6465   12.8765 C.3         1 TSV       0.0206
     44 C28       -11.6855   -7.0674   13.9667 C.3         1 TSV       0.1330
     45 C29       -19.9209   -9.6719   13.4490 C.3         1 TSV      -0.0268
     46 C30       -14.4705  -10.6026   14.3653 C.3         1 TSV       0.1158
     47 C31       -13.7215  -14.1768   16.5813 C.2         1 TSV       0.0402
     48 C32       -18.9382   -9.2567   14.5505 C.3         1 TSV      -0.0268
     49 C33       -12.5688   -7.7319   12.9956 C.2         1 TSV       0.2064
     50 C34       -13.3283   -9.5705   14.4526 C.3         1 TSV       0.0677
     51 C35       -13.2478  -12.8342   14.6267 C.2         1 TSV       0.4317
     52 H1        -17.2899   -5.7690    8.7149 H           1 TSV       0.0300
     53 H2        -15.7130   -6.7658    8.5152 H           1 TSV       0.0300
     54 H3         -9.7646   -7.7685   13.8870 H           1 TSV       0.1899
     55 H4        -15.2944   -8.3784   10.1438 H           1 TSV       0.1841
     56 H5        -14.6971   -5.6191   10.3288 H           1 TSV       0.0435
     57 H6        -17.4319   -6.4307   12.9277 H           1 TSV       0.2148
     58 H7        -17.0323   -3.8412   10.2052 H           1 TSV       0.0452
     59 H8         -5.2661   -5.7727   11.3876 H           1 TSV       0.0260
     60 H9         -6.0906   -7.3378   11.4945 H           1 TSV       0.0260
     61 H10        -5.8216   -6.3754   12.9547 H           1 TSV       0.0260
     62 H11        -6.9943   -5.1995    9.5725 H           1 TSV       0.0260
     63 H12        -8.7050   -5.0338    9.9790 H           1 TSV       0.0260
     64 H13        -7.9936   -6.6411    9.8301 H           1 TSV       0.0260
     65 H14        -6.5973   -3.5906   11.7102 H           1 TSV       0.0260
     66 H15        -7.1450   -4.1780   13.2945 H           1 TSV       0.0260
     67 H16        -8.3290   -3.6482   12.0913 H           1 TSV       0.0260
     68 H17       -16.2802   -2.6271   11.9525 H           1 TSV       0.0450
     69 H18       -11.8036  -15.1648   14.2401 H           1 TSV       0.0373
     70 H19       -14.0155   -3.1724   12.6708 H           1 TSV       0.0388
     71 H20       -14.4173   -4.8832   12.5203 H           1 TSV       0.0388
     72 H21       -11.7950  -18.8698   17.6337 H           1 TSV       0.0607
     73 H22       -13.8392   -9.5198   11.3375 H           1 TSV       0.0803
     74 H23       -11.3073  -17.6530   15.5714 H           1 TSV       0.0580
     75 H24       -13.2178  -17.8916   19.3278 H           1 TSV       0.0604
     76 H25       -16.1176   -4.6872   14.3169 H           1 TSV       0.0285
     77 H26       -15.7635   -2.9655   14.4707 H           1 TSV       0.0285
     78 H27       -14.7022   -4.1754   16.2652 H           1 TSV       0.0267
     79 H28       -13.4663   -3.4518   15.2510 H           1 TSV       0.0267
     80 H29       -14.2468   -6.3432   14.7307 H           1 TSV       0.0267
     81 H30       -13.3343   -6.0096   16.1906 H           1 TSV       0.0267
     82 H31       -20.9163   -8.2429   14.8183 H           1 TSV       0.0559
     83 H32       -11.4381   -5.1793   15.0203 H           1 TSV       0.0312
     84 H33       -12.2974   -5.0224   13.5044 H           1 TSV       0.0312
     85 H34       -14.3521  -11.4789   12.3752 H           1 TSV       0.0342
     86 H35       -15.9315  -10.7812   12.7505 H           1 TSV       0.0342
     87 H36       -11.6429   -7.6491   14.8871 H           1 TSV       0.0799
     88 H37       -19.5039   -9.6915   12.4409 H           1 TSV       0.0285
     89 H38       -20.6489  -10.4333   13.7430 H           1 TSV       0.0285
     90 H39       -15.3276  -10.2026   14.9175 H           1 TSV       0.0673
     91 H40       -14.3382  -13.5335   17.0796 H           1 TSV       0.0367
     92 H41       -19.0750   -9.7746   15.5036 H           1 TSV       0.0285
     93 H42       -17.9296   -9.0373   14.1997 H           1 TSV       0.0285
     94 H43       -13.4912   -8.9391   15.3306 H           1 TSV       0.0553
     95 H44       -12.3654  -10.0717   14.5476 H           1 TSV       0.0553
@<TRIPOS>BOND
     1     6     1   1
     2     9     1   1
     3    37     2   1
     4     3    36  am
     5    44     3   1
     6     4    24   1
     7    36     4   1
     8    10     5  am
     9     5    14   2
    10     5    19   2
    11     5    39   1
    12     7     6   1
    13     6     9   1
    14     6    12   1
    15    27     7  am
    16    36     8   2
    17     9    15   1
    18    12    10  am
    19    49    11   2
    20    12    25   2
    21    13    28   1
    22    13    47   1
    23    51    13  am
    24    15    26   2
    25    31    16   1
    26    16    49  am
    27    16    50   1
    28    51    17   2
    29    24    18   1
    30    24    20   1
    31    27    21   2
    32    24    22   1
    33    46    23   1
    34    23    51   1
    35    26    29   1
    36    31    27   1
    37    28    40   2
    38    29    34   1
    39    32    30  ar
    40    33    30  ar
    41    43    31   1
    42    40    32  ar
    43    37    33  ar
    44    34    35   1
    45    35    38   1
    46    42    37  ar
    47    38    41   1
    48    39    45   1
    49    39    48   1
    50    42    40  ar
    51    41    44   1
    52    47    42   2
    53    43    46   1
    54    44    49   1
    55    45    48   1
    56    46    50   1
    57     1    52   1
    58     1    53   1
    59     3    54   1
    60     7    55   1
    61     9    56   1
    62    10    57   1
    63    15    58   1
    64    18    59   1
    65    18    60   1
    66    18    61   1
    67    20    62   1
    68    20    63   1
    69    20    64   1
    70    22    65   1
    71    22    66   1
    72    22    67   1
    73    26    68   1
    74    28    69   1
    75    29    70   1
    76    29    71   1
    77    30    72   1
    78    31    73   1
    79    32    74   1
    80    33    75   1
    81    34    76   1
    82    34    77   1
    83    35    78   1
    84    35    79   1
    85    38    80   1
    86    38    81   1
    87    39    82   1
    88    41    83   1
    89    41    84   1
    90    43    85   1
    91    43    86   1
    92    44    87   1
    93    45    88   1
    94    45    89   1
    95    46    90   1
    96    47    91   1
    97    48    92   1
    98    48    93   1
    99    50    94   1
   100    50    95   1
@<TRIPOS>SUBSTRUCTURE
     1  TSV      1

