@<TRIPOS>MOLECULE
3su3_ligand_071
   106   111
SMALL
GAST_HUCK
****
This file was generated by PARSER (from files_GN.cpp)

@<TRIPOS>ATOM
      1 C         -11.6267   -5.4517   10.4374 C.2         1 SU3       0.2013
      2 N         -13.8040   -5.7655   11.4561 N.am        1 SU3      -0.2469
      3 O         -11.2141   -4.3138   10.6367 O.2         1 SU3      -0.3947
      4 CA        -13.0613   -5.6771   10.2156 C.3         1 SU3       0.1363
      5 CB        -13.7543   -4.5516    9.3986 C.3         1 SU3       0.0206
      6 CG        -15.1489   -4.4424   10.0346 C.3         1 SU3       0.1158
      7 CAF       -13.5832   -6.7022   12.3975 C.2         1 SU3       0.2070
      8 OAG       -12.8537   -7.6470   12.1075 O.2         1 SU3      -0.3942
      9 CAH       -14.1232   -6.7149   13.7694 C.3         1 SU3       0.1378
     10 NAI       -14.7879   -7.9770   13.9838 N.am        1 SU3      -0.2407
     11 CAJ       -16.0806   -8.1626   14.3335 C.2         1 SU3       0.3218
     12 OAK       -16.4774   -9.4317   14.6161 O.3         1 SU3      -0.2633
     13 CAL       -13.0536   -6.4099   14.9042 C.3         1 SU3       0.0025
     14 OAM       -16.9337   -7.1209   14.4802 O.2         1 SU3      -0.3774
     15 CAO       -16.6687   -5.3646    8.2468 C.2         1 SU3       0.4317
     16 OAP       -16.4542   -4.3146    7.4158 O.2         1 SU3      -0.3166
     17 NAQ       -17.4754   -6.3904    7.8770 N.am        1 SU3      -0.2080
     18 CAR        -7.8430   -5.3030   12.9045 C.3         1 SU3      -0.0516
     19 CAS        -7.6852   -5.3789   14.4423 C.3         1 SU3      -0.0651
     20 CAT       -13.7652   -6.3553   16.3003 C.3         1 SU3      -0.0558
     21 NAV       -10.8054   -6.4776   10.6324 N.am        1 SU3      -0.2737
     22 CAX        -9.3991   -6.3813   10.9135 C.3         1 SU3       0.1374
     23 CAY        -8.5680   -5.9505    9.8038 C.2         1 SU3       0.2444
     24 CAZ        -9.0604   -6.1286   12.4084 C.3         1 SU3      -0.0066
     25 CBA        -8.8221   -7.5153   11.7874 C.3         1 SU3      -0.0152
     26 CBB       -18.1448   -6.5027    6.7072 C.2         1 SU3       0.0383
     27 CBC       -18.8469   -7.7010    6.7085 C.ar        1 SU3      -0.0374
     28 CBD       -18.5872   -8.3381    7.9209 C.ar        1 SU3      -0.0293
     29 CBE       -17.7378   -7.4886    8.6244 C.2         1 SU3       0.0366
     30 CBF       -19.6900   -8.2809    5.7460 C.ar        1 SU3      -0.0689
     31 CBG       -20.2783   -9.5285    6.0329 C.ar        1 SU3      -0.0688
     32 CBH       -20.0165  -10.1769    7.2600 C.ar        1 SU3      -0.0606
     33 CBI       -19.1575   -9.5973    8.2289 C.ar        1 SU3      -0.0432
     34 CBJ       -18.8908  -10.3028    9.5113 C.3         1 SU3      -0.0194
     35 NBK        -8.9346   -6.2909    8.5766 N.am        1 SU3      -0.1552
     36 OBL        -7.6379   -5.1754    9.9957 O.2         1 SU3      -0.3404
     37 SBM        -8.2431   -5.6919    7.1589 S.o2        1 SU3       0.0645
     38 CBN        -9.1797   -6.1623    5.6822 C.3         1 SU3       0.1004
     39 OBO        -8.2185   -4.1030    7.2405 O.2         1 SU3      -0.1503
     40 OBP        -6.7653   -6.2589    7.0178 O.2         1 SU3      -0.1503
     41 CBQ       -10.6880   -6.4346    5.8168 C.3         1 SU3      -0.0268
     42 CBR       -10.2052   -5.1568    5.1257 C.3         1 SU3      -0.0268
     43 CBS       -20.0521  -10.1166   10.5246 C.3         1 SU3      -0.0433
     44 CBT       -19.8369  -10.8495   11.8788 C.3         1 SU3      -0.0507
     45 CBU       -18.8674  -10.1236   12.8595 C.3         1 SU3      -0.0453
     46 CBV       -18.5203  -10.8616   14.2067 C.3         1 SU3      -0.0072
     47 CBW       -17.7426   -9.8702   15.1416 C.3         1 SU3       0.0824
     48 CBX       -19.8157  -11.3049   14.9642 C.3         1 SU3      -0.0574
     49 CBY       -17.6298  -12.1207   13.9476 C.3         1 SU3      -0.0574
     50 CBZ       -11.9267   -7.4929   14.9997 C.3         1 SU3      -0.0558
     51 CCA       -12.3974   -5.0076   14.6614 C.3         1 SU3      -0.0558
     52 CD1       -14.8788   -4.8162   11.5014 C.3         1 SU3       0.0677
     53 OD2       -16.0646   -5.3908    9.4667 O.3         1 SU3      -0.2338
     54 H1        -13.2052   -6.6137    9.6642 H           1 SU3       0.0803
     55 H2        -13.8041   -4.7953    8.3341 H           1 SU3       0.0342
     56 H3        -13.2584   -3.5828    9.5043 H           1 SU3       0.0342
     57 H4        -15.5667   -3.4332    9.9631 H           1 SU3       0.0673
     58 H5        -14.8583   -5.9154   13.8602 H           1 SU3       0.0805
     59 H6        -14.2399   -8.7738   13.9243 H           1 SU3       0.1899
     60 H7         -6.9109   -5.6444   12.4427 H           1 SU3       0.0265
     61 H8         -7.9967   -4.2583   12.6261 H           1 SU3       0.0265
     62 H9         -6.8563   -4.7434   14.7602 H           1 SU3       0.0230
     63 H10        -7.4827   -6.4042   14.7528 H           1 SU3       0.0230
     64 H11        -8.5920   -5.0307   14.9381 H           1 SU3       0.0230
     65 H12       -13.0653   -6.0751   17.0907 H           1 SU3       0.0237
     66 H13       -14.1826   -7.3296   16.5593 H           1 SU3       0.0237
     67 H14       -14.5803   -5.6270   16.2994 H           1 SU3       0.0237
     68 H15       -11.1856   -7.3702   10.5851 H           1 SU3       0.1839
     69 H16        -9.9384   -6.0857   13.0508 H           1 SU3       0.0312
     70 H17        -7.7811   -7.7961   11.6176 H           1 SU3       0.0279
     71 H18        -9.5208   -8.2931   12.1050 H           1 SU3       0.0279
     72 H19       -18.1437   -5.8262    5.9413 H           1 SU3       0.0373
     73 H20       -17.3693   -7.6709    9.5611 H           1 SU3       0.0361
     74 H21       -19.8752   -7.8078    4.8585 H           1 SU3       0.0557
     75 H22       -20.8975   -9.9673    5.3476 H           1 SU3       0.0599
     76 H23       -20.4559  -11.0822    7.4407 H           1 SU3       0.0557
     77 H24       -17.9615   -9.9443    9.9539 H           1 SU3       0.0426
     78 H25       -18.7487  -11.3674    9.3102 H           1 SU3       0.0426
     79 H26        -9.6990   -6.8800    8.4808 H           1 SU3       0.2148
     80 H27        -8.6761   -6.7631    4.9230 H           1 SU3       0.0559
     81 H28       -11.1461   -6.2801    6.7954 H           1 SU3       0.0285
     82 H29       -11.1075   -7.1881    5.1449 H           1 SU3       0.0285
     83 H30       -10.3267   -5.1417    4.0396 H           1 SU3       0.0285
     84 H31       -10.3955   -4.2433    5.6912 H           1 SU3       0.0285
     85 H32       -20.9683  -10.5090   10.0730 H           1 SU3       0.0287
     86 H33       -20.2101   -9.0502   10.7114 H           1 SU3       0.0287
     87 H34       -19.4869  -11.8633   11.6799 H           1 SU3       0.0267
     88 H35       -20.8152  -10.9275   12.3598 H           1 SU3       0.0267
     89 H36       -19.3203   -9.1560   13.0963 H           1 SU3       0.0271
     90 H37       -17.9334   -9.9132   12.3338 H           1 SU3       0.0271
     91 H38       -18.3796   -9.0124   15.3710 H           1 SU3       0.0617
     92 H39       -17.5272  -10.3616   16.0928 H           1 SU3       0.0617
     93 H40       -20.3547  -12.0749   14.4095 H           1 SU3       0.0236
     94 H41       -20.4862  -10.4552   15.1107 H           1 SU3       0.0236
     95 H42       -19.5732  -11.7197   15.9449 H           1 SU3       0.0236
     96 H43       -16.7287  -11.8536   13.3921 H           1 SU3       0.0236
     97 H44       -18.1701  -12.8749   13.3743 H           1 SU3       0.0236
     98 H45       -17.3232  -12.5786   14.8910 H           1 SU3       0.0236
     99 H46       -11.3315   -7.5295   14.0895 H           1 SU3       0.0237
    100 H47       -12.3511   -8.4840   15.1675 H           1 SU3       0.0237
    101 H48       -11.2465   -7.2744   15.8233 H           1 SU3       0.0237
    102 H49       -13.1527   -4.2178   14.6659 H           1 SU3       0.0237
    103 H50       -11.8876   -4.9726   13.6991 H           1 SU3       0.0237
    104 H51       -11.6623   -4.7762   15.4356 H           1 SU3       0.0237
    105 H52       -14.5772   -3.9381   12.0809 H           1 SU3       0.0553
    106 H53       -15.7958   -5.2309   11.9310 H           1 SU3       0.0553
@<TRIPOS>BOND
     1     1     3   2
     2     1     4   1
     3    21     1  am
     4     4     2   1
     5     2     7  am
     6     2    52   1
     7     4     5   1
     8     5     6   1
     9     6    52   1
    10     6    53   1
    11     7     8   2
    12     7     9   1
    13     9    10   1
    14     9    13   1
    15    10    11  am
    16    11    12   1
    17    11    14   2
    18    12    47   1
    19    13    20   1
    20    13    50   1
    21    13    51   1
    22    15    16   2
    23    15    17  am
    24    53    15   1
    25    17    26   1
    26    17    29   1
    27    18    19   1
    28    24    18   1
    29    22    21   1
    30    22    23   1
    31    22    24   1
    32    22    25   1
    33    23    35  am
    34    23    36   2
    35    24    25   1
    36    26    27   2
    37    27    28  ar
    38    27    30  ar
    39    28    29   2
    40    28    33  ar
    41    30    31  ar
    42    31    32  ar
    43    32    33  ar
    44    33    34   1
    45    34    43   1
    46    35    37  am
    47    37    38   1
    48    37    39   2
    49    37    40   2
    50    38    41   1
    51    38    42   1
    52    41    42   1
    53    43    44   1
    54    44    45   1
    55    45    46   1
    56    46    47   1
    57    46    48   1
    58    46    49   1
    59     4    54   1
    60     5    55   1
    61     5    56   1
    62     6    57   1
    63     9    58   1
    64    10    59   1
    65    18    60   1
    66    18    61   1
    67    19    62   1
    68    19    63   1
    69    19    64   1
    70    20    65   1
    71    20    66   1
    72    20    67   1
    73    21    68   1
    74    24    69   1
    75    25    70   1
    76    25    71   1
    77    26    72   1
    78    29    73   1
    79    30    74   1
    80    31    75   1
    81    32    76   1
    82    34    77   1
    83    34    78   1
    84    35    79   1
    85    38    80   1
    86    41    81   1
    87    41    82   1
    88    42    83   1
    89    42    84   1
    90    43    85   1
    91    43    86   1
    92    44    87   1
    93    44    88   1
    94    45    89   1
    95    45    90   1
    96    47    91   1
    97    47    92   1
    98    48    93   1
    99    48    94   1
   100    48    95   1
   101    49    96   1
   102    49    97   1
   103    49    98   1
   104    50    99   1
   105    50   100   1
   106    50   101   1
   107    51   102   1
   108    51   103   1
   109    51   104   1
   110    52   105   1
   111    52   106   1
@<TRIPOS>SUBSTRUCTURE
     1  SU3      1

