@<TRIPOS>MOLECULE
3su3_ligand_033
   106   111
SMALL
GAST_HUCK
****
This file was generated by PARSER (from files_GN.cpp)

@<TRIPOS>ATOM
      1 C          -9.9320   -9.4944    8.2617 C.2         1 SU3       0.2013
      2 N         -10.2556   -7.4637    9.6146 N.am        1 SU3      -0.2469
      3 O          -8.8973   -9.2563    7.6489 O.2         1 SU3      -0.3947
      4 CA        -10.8092   -8.3780    8.6311 C.3         1 SU3       0.1363
      5 CB        -11.1824   -7.4970    7.4082 C.3         1 SU3       0.0206
      6 CG        -11.3711   -6.0993    8.0139 C.3         1 SU3       0.1158
      7 CAF        -9.8165   -7.8457   10.8291 C.2         1 SU3       0.2070
      8 OAG       -10.0099   -9.0106   11.1609 O.2         1 SU3      -0.3942
      9 CAH        -9.2004   -6.9929   11.8640 C.3         1 SU3       0.1378
     10 NAI       -10.0914   -6.9884   13.0018 N.am        1 SU3      -0.2407
     11 CAJ       -10.5724   -5.8778   13.6145 C.2         1 SU3       0.3218
     12 OAK       -11.2394   -6.0146   14.7929 O.3         1 SU3      -0.2633
     13 CAL        -7.6871   -7.3286   12.2652 C.3         1 SU3       0.0025
     14 OAM       -10.3072   -4.6435   13.1327 O.2         1 SU3      -0.3774
     15 CAO       -13.8579   -5.7619    7.8331 C.2         1 SU3       0.4317
     16 OAP       -13.8195   -5.6834    6.4828 O.2         1 SU3      -0.3166
     17 NAQ       -15.0472   -5.6944    8.4937 N.am        1 SU3      -0.2080
     18 CAR        -6.7526  -12.7943    8.4054 C.3         1 SU3      -0.0516
     19 CAS        -6.9912  -13.9871    7.4530 C.3         1 SU3      -0.0651
     20 CAT        -6.7182   -6.4225   11.4264 C.3         1 SU3      -0.0558
     21 NAV       -10.2249  -10.7311    8.6472 N.am        1 SU3      -0.2737
     22 CAX        -9.4360  -11.9040    8.4128 C.3         1 SU3       0.1374
     23 CAY        -9.9022  -12.7603    7.3457 C.2         1 SU3       0.2444
     24 CAZ        -7.9475  -11.8958    8.8461 C.3         1 SU3      -0.0066
     25 CBA        -8.9999  -12.5887    9.7292 C.3         1 SU3      -0.0152
     26 CBB       -16.2645   -5.5431    7.9355 C.2         1 SU3       0.0383
     27 CBC       -17.2243   -5.5465    8.9385 C.ar        1 SU3      -0.0374
     28 CBD       -16.5586   -5.7129   10.1516 C.ar        1 SU3      -0.0293
     29 CBE       -15.2016   -5.7899    9.8356 C.2         1 SU3       0.0366
     30 CBF       -18.6216   -5.4193    8.8866 C.ar        1 SU3      -0.0689
     31 CBG       -19.3445   -5.4566   10.0960 C.ar        1 SU3      -0.0688
     32 CBH       -18.6687   -5.6293   11.3274 C.ar        1 SU3      -0.0606
     33 CBI       -17.2615   -5.7709   11.3773 C.ar        1 SU3      -0.0432
     34 CBJ       -16.5656   -5.9557   12.6796 C.3         1 SU3      -0.0194
     35 NBK        -9.6589  -12.3936    6.0967 N.am        1 SU3      -0.1552
     36 OBL       -10.6150  -13.7242    7.6009 O.2         1 SU3      -0.3404
     37 SBM       -10.1641  -13.2339    4.7276 S.o2        1 SU3       0.0645
     38 CBN        -9.6998  -12.2592    3.2738 C.3         1 SU3       0.1004
     39 OBO        -9.4687  -14.6625    4.6881 O.2         1 SU3      -0.1503
     40 OBP       -11.7465  -13.3731    4.7106 O.2         1 SU3      -0.1503
     41 CBQ        -8.2412  -12.3398    2.7992 C.3         1 SU3      -0.0268
     42 CBR        -9.3558  -12.9962    1.9719 C.3         1 SU3      -0.0268
     43 CBS       -16.3381   -4.6012   13.3985 C.3         1 SU3      -0.0433
     44 CBT       -15.5854   -4.7165   14.7530 C.3         1 SU3      -0.0507
     45 CBU       -14.0428   -4.9221   14.6308 C.3         1 SU3      -0.0453
     46 CBV       -13.2221   -4.9792   15.9749 C.3         1 SU3      -0.0072
     47 CBW       -11.6866   -4.9560   15.6583 C.3         1 SU3       0.0824
     48 CBX       -13.5335   -3.7304   16.8666 C.3         1 SU3      -0.0574
     49 CBY       -13.5469   -6.2771   16.7831 C.3         1 SU3      -0.0574
     50 CBZ        -7.3978   -7.0090   13.7742 C.3         1 SU3      -0.0558
     51 CCA        -7.2604   -8.8167   12.0312 C.3         1 SU3      -0.0558
     52 CD1       -10.3532   -6.0992    9.1716 C.3         1 SU3       0.0677
     53 OD2       -12.6998   -5.9315    8.5318 O.3         1 SU3      -0.2338
     54 H1        -11.7447   -8.7689    9.0559 H           1 SU3       0.0803
     55 H2        -12.0848   -7.8617    6.9101 H           1 SU3       0.0342
     56 H3        -10.3739   -7.4483    6.6715 H           1 SU3       0.0342
     57 H4        -11.1433   -5.3042    7.2988 H           1 SU3       0.0673
     58 H5         -9.1717   -5.9759   11.4777 H           1 SU3       0.0805
     59 H6        -10.2627   -7.8400   13.4361 H           1 SU3       0.1899
     60 H7         -6.0230  -12.1351    7.9292 H           1 SU3       0.0265
     61 H8         -6.2824  -13.1745    9.3160 H           1 SU3       0.0265
     62 H9         -6.0653  -14.5544    7.3487 H           1 SU3       0.0230
     63 H10        -7.2845  -13.6322    6.4666 H           1 SU3       0.0230
     64 H11        -7.7570  -14.6586    7.8407 H           1 SU3       0.0230
     65 H12        -5.6681   -6.6588   11.6250 H           1 SU3       0.0237
     66 H13        -6.8665   -5.3640   11.6654 H           1 SU3       0.0237
     67 H14        -6.9018   -6.5473   10.3581 H           1 SU3       0.0237
     68 H15       -11.0409  -10.8562    9.1514 H           1 SU3       0.1839
     69 H16        -7.6310  -10.9509    9.2898 H           1 SU3       0.0312
     70 H17        -8.9897  -13.6842    9.7459 H           1 SU3       0.0279
     71 H18        -9.2274  -12.0637   10.6636 H           1 SU3       0.0279
     72 H19       -16.4675   -5.4440    6.9361 H           1 SU3       0.0373
     73 H20       -14.4459   -5.9049   10.5160 H           1 SU3       0.0361
     74 H21       -19.1049   -5.2992    7.9954 H           1 SU3       0.0557
     75 H22       -20.3646   -5.3632   10.0826 H           1 SU3       0.0599
     76 H23       -19.2228   -5.6563   12.1893 H           1 SU3       0.0557
     77 H24       -15.6089   -6.4542   12.5279 H           1 SU3       0.0426
     78 H25       -17.1623   -6.6135   13.3173 H           1 SU3       0.0426
     79 H26        -9.1500  -11.5799    5.9607 H           1 SU3       0.2148
     80 H27       -10.1723  -11.2855    3.1399 H           1 SU3       0.0559
     81 H28        -7.5810  -13.0265    3.3312 H           1 SU3       0.0285
     82 H29        -7.8273  -11.4204    2.3791 H           1 SU3       0.0285
     83 H30        -9.6049  -12.4753    1.0457 H           1 SU3       0.0285
     84 H31        -9.3678  -14.0866    1.9915 H           1 SU3       0.0285
     85 H32       -17.3160   -4.1505   13.5960 H           1 SU3       0.0287
     86 H33       -15.7914   -3.9190   12.7412 H           1 SU3       0.0287
     87 H34       -16.0232   -5.5297   15.3351 H           1 SU3       0.0267
     88 H35       -15.7722   -3.7857   15.2939 H           1 SU3       0.0267
     89 H36       -13.6517   -4.1012   14.0229 H           1 SU3       0.0271
     90 H37       -13.8617   -5.8436   14.0737 H           1 SU3       0.0271
     91 H38       -11.4266   -3.9788   15.2454 H           1 SU3       0.0617
     92 H39       -11.1188   -5.0610   16.5866 H           1 SU3       0.0617
     93 H40       -14.5263   -3.7975   17.3197 H           1 SU3       0.0236
     94 H41       -13.4933   -2.8187   16.2667 H           1 SU3       0.0236
     95 H42       -12.8073   -3.6314   17.6759 H           1 SU3       0.0236
     96 H43       -13.3786   -7.1681   16.1735 H           1 SU3       0.0236
     97 H44       -14.5859   -6.2793   17.1126 H           1 SU3       0.0236
     98 H45       -12.9197   -6.3490   17.6761 H           1 SU3       0.0236
     99 H46        -7.9891   -7.6558   14.4292 H           1 SU3       0.0237
    100 H47        -7.6438   -5.9695   14.0096 H           1 SU3       0.0237
    101 H48        -6.3447   -7.1697   14.0199 H           1 SU3       0.0237
    102 H49        -7.3830   -9.1029   10.9887 H           1 SU3       0.0237
    103 H50        -7.8587   -9.4866   12.6448 H           1 SU3       0.0237
    104 H51        -6.2126   -8.9717   12.2883 H           1 SU3       0.0237
    105 H52        -9.3725   -5.7528    8.8289 H           1 SU3       0.0553
    106 H53       -10.7191   -5.4256    9.9519 H           1 SU3       0.0553
@<TRIPOS>BOND
     1     1     3   2
     2     1     4   1
     3    21     1  am
     4     4     2   1
     5     2     7  am
     6     2    52   1
     7     4     5   1
     8     5     6   1
     9     6    52   1
    10     6    53   1
    11     7     8   2
    12     7     9   1
    13     9    10   1
    14     9    13   1
    15    10    11  am
    16    11    12   1
    17    11    14   2
    18    12    47   1
    19    13    20   1
    20    13    50   1
    21    13    51   1
    22    15    16   2
    23    15    17  am
    24    53    15   1
    25    17    26   1
    26    17    29   1
    27    18    19   1
    28    24    18   1
    29    22    21   1
    30    22    23   1
    31    22    24   1
    32    22    25   1
    33    23    35  am
    34    23    36   2
    35    24    25   1
    36    26    27   2
    37    27    28  ar
    38    27    30  ar
    39    28    29   2
    40    28    33  ar
    41    30    31  ar
    42    31    32  ar
    43    32    33  ar
    44    33    34   1
    45    34    43   1
    46    35    37  am
    47    37    38   1
    48    37    39   2
    49    37    40   2
    50    38    41   1
    51    38    42   1
    52    41    42   1
    53    43    44   1
    54    44    45   1
    55    45    46   1
    56    46    47   1
    57    46    48   1
    58    46    49   1
    59     4    54   1
    60     5    55   1
    61     5    56   1
    62     6    57   1
    63     9    58   1
    64    10    59   1
    65    18    60   1
    66    18    61   1
    67    19    62   1
    68    19    63   1
    69    19    64   1
    70    20    65   1
    71    20    66   1
    72    20    67   1
    73    21    68   1
    74    24    69   1
    75    25    70   1
    76    25    71   1
    77    26    72   1
    78    29    73   1
    79    30    74   1
    80    31    75   1
    81    32    76   1
    82    34    77   1
    83    34    78   1
    84    35    79   1
    85    38    80   1
    86    41    81   1
    87    41    82   1
    88    42    83   1
    89    42    84   1
    90    43    85   1
    91    43    86   1
    92    44    87   1
    93    44    88   1
    94    45    89   1
    95    45    90   1
    96    47    91   1
    97    47    92   1
    98    48    93   1
    99    48    94   1
   100    48    95   1
   101    49    96   1
   102    49    97   1
   103    49    98   1
   104    50    99   1
   105    50   100   1
   106    50   101   1
   107    51   102   1
   108    51   103   1
   109    51   104   1
   110    52   105   1
   111    52   106   1
@<TRIPOS>SUBSTRUCTURE
     1  SU3      1

