@<TRIPOS>MOLECULE
3su3_ligand_030
   106   111
SMALL
GAST_HUCK
****
This file was generated by PARSER (from files_GN.cpp)

@<TRIPOS>ATOM
      1 C          -6.0330   -1.9172    8.4012 C.2         1 SU3       0.2013
      2 N          -5.3561    0.1939    9.5079 N.am        1 SU3      -0.2469
      3 O          -6.7249   -2.0767    7.3912 O.2         1 SU3      -0.3947
      4 CA         -5.1355   -0.7729    8.4451 C.3         1 SU3       0.1363
      5 CB         -3.6596   -1.2222    8.6038 C.3         1 SU3       0.0206
      6 CG         -3.0013    0.0103    9.2333 C.3         1 SU3       0.1158
      7 CAF        -6.5363    0.7881    9.7645 C.2         1 SU3       0.2070
      8 OAG        -7.4883    0.5127    9.0411 O.2         1 SU3      -0.3942
      9 CAH        -6.8176    1.7397   10.8599 C.3         1 SU3       0.1378
     10 NAI        -7.2943    2.9690   10.2757 N.am        1 SU3      -0.2407
     11 CAJ        -6.7778    4.2060   10.4550 C.2         1 SU3       0.3218
     12 OAK        -7.4395    5.2556    9.9007 O.3         1 SU3      -0.2633
     13 CAL        -7.7817    1.2014   11.9952 C.3         1 SU3       0.0025
     14 OAM        -5.6824    4.4222   11.2252 O.2         1 SU3      -0.3774
     15 CAO        -1.7081    1.0433    7.3305 C.2         1 SU3       0.4317
     16 OAP        -0.7872    0.0478    7.3141 O.2         1 SU3      -0.3166
     17 NAQ        -1.6445    2.0666    6.4438 N.am        1 SU3      -0.2080
     18 CAR        -9.0970   -5.4302    8.8418 C.3         1 SU3      -0.0516
     19 CAS       -10.1097   -5.4756    7.6714 C.3         1 SU3      -0.0651
     20 CAT        -7.8877    2.2648   13.1432 C.3         1 SU3      -0.0558
     21 NAV        -6.1404   -2.7525    9.4344 N.am        1 SU3      -0.2737
     22 CAX        -6.9291   -3.9470    9.6054 C.3         1 SU3       0.1374
     23 CAY        -7.3073   -4.2069   10.9825 C.2         1 SU3       0.2444
     24 CAZ        -7.8524   -4.5502    8.5034 C.3         1 SU3      -0.0066
     25 CBA        -6.4559   -5.1494    8.7555 C.3         1 SU3      -0.0152
     26 CBB        -0.6937    2.2498    5.5022 C.2         1 SU3       0.0383
     27 CBC        -0.9911    3.3991    4.7836 C.ar        1 SU3      -0.0374
     28 CBD        -2.1702    3.9284    5.3043 C.ar        1 SU3      -0.0293
     29 CBE        -2.5411    3.0787    6.3446 C.2         1 SU3       0.0366
     30 CBF        -0.3238    4.0199    3.7115 C.ar        1 SU3      -0.0689
     31 CBG        -0.8769    5.1940    3.1669 C.ar        1 SU3      -0.0688
     32 CBH        -2.0744    5.7300    3.6891 C.ar        1 SU3      -0.0606
     33 CBI        -2.7498    5.1060    4.7708 C.ar        1 SU3      -0.0432
     34 CBJ        -4.0148    5.6874    5.2977 C.3         1 SU3      -0.0194
     35 NBK        -6.8202   -5.2490   11.6472 N.am        1 SU3      -0.1552
     36 OBL        -8.0821   -3.4224   11.5186 O.2         1 SU3      -0.3404
     37 SBM        -7.3398   -5.7682   13.1684 S.o2        1 SU3       0.0645
     38 CBN        -8.9541   -6.5842   13.1966 C.3         1 SU3       0.1004
     39 OBO        -6.3043   -6.9131   13.5453 O.2         1 SU3      -0.1503
     40 OBP        -7.1075   -4.6631   14.2908 O.2         1 SU3      -0.1503
     41 CBQ        -9.9304   -6.2132   14.3279 C.3         1 SU3      -0.0268
     42 CBR       -10.2089   -5.7454   12.8929 C.3         1 SU3      -0.0268
     43 CBS        -3.7589    6.9493    6.1659 C.3         1 SU3      -0.0433
     44 CBT        -5.0457    7.5799    6.7680 C.3         1 SU3      -0.0507
     45 CBU        -5.5933    6.8478    8.0320 C.3         1 SU3      -0.0453
     46 CBV        -6.9250    7.3971    8.6703 C.3         1 SU3      -0.0072
     47 CBW        -7.1778    6.6647   10.0356 C.3         1 SU3       0.0824
     48 CBX        -6.8223    8.9326    8.9595 C.3         1 SU3      -0.0574
     49 CBY        -8.1463    7.1454    7.7272 C.3         1 SU3      -0.0574
     50 CBZ        -9.2340    0.8977   11.4958 C.3         1 SU3      -0.0558
     51 CCA        -7.1817   -0.1036   12.6172 C.3         1 SU3      -0.0558
     52 CD1        -4.1175    0.5335   10.1547 C.3         1 SU3       0.0677
     53 OD2        -2.7104    1.0134    8.2466 O.3         1 SU3      -0.2338
     54 H1         -5.2094   -0.2172    7.5022 H           1 SU3       0.0803
     55 H2         -3.2109   -1.4927    7.6429 H           1 SU3       0.0342
     56 H3         -3.5593   -2.0696    9.2902 H           1 SU3       0.0342
     57 H4         -2.0998   -0.2384    9.8035 H           1 SU3       0.0673
     58 H5         -5.8852    1.9566   11.3779 H           1 SU3       0.0805
     59 H6         -8.1034    2.9146    9.7429 H           1 SU3       0.1899
     60 H7         -8.8093   -6.4589    9.0914 H           1 SU3       0.0265
     61 H8         -9.6113   -5.0033    9.7102 H           1 SU3       0.0265
     62 H9        -10.9840   -6.0723    7.9593 H           1 SU3       0.0230
     63 H10        -9.6479   -5.9316    6.7875 H           1 SU3       0.0230
     64 H11       -10.4432   -4.4628    7.4222 H           1 SU3       0.0230
     65 H12        -8.5025    1.8966   13.9675 H           1 SU3       0.0237
     66 H13        -8.3407    3.1894   12.7824 H           1 SU3       0.0237
     67 H14        -6.9021    2.5072   13.5451 H           1 SU3       0.0237
     68 H15        -5.6098   -2.5053   10.2122 H           1 SU3       0.1839
     69 H16        -7.8854   -4.0243    7.5439 H           1 SU3       0.0312
     70 H17        -6.4484   -6.1356    9.2216 H           1 SU3       0.0279
     71 H18        -5.7190   -4.9379    7.9754 H           1 SU3       0.0279
     72 H19         0.1185    1.6499    5.3338 H           1 SU3       0.0373
     73 H20        -3.3667    3.1971    6.9333 H           1 SU3       0.0361
     74 H21         0.5430    3.6266    3.3370 H           1 SU3       0.0557
     75 H22        -0.4091    5.6610    2.3853 H           1 SU3       0.0599
     76 H23        -2.4562    6.5811    3.2698 H           1 SU3       0.0557
     77 H24        -4.5564    4.9487    5.8893 H           1 SU3       0.0426
     78 H25        -4.6625    5.9473    4.4555 H           1 SU3       0.0426
     79 H26        -6.1623   -5.8083   11.1999 H           1 SU3       0.2148
     80 H27        -9.0160   -7.6187   12.8496 H           1 SU3       0.0559
     81 H28        -9.6267   -5.4251   15.0166 H           1 SU3       0.0285
     82 H29       -10.5717   -7.0176   14.6863 H           1 SU3       0.0285
     83 H30       -11.0218   -6.2674   12.3879 H           1 SU3       0.0285
     84 H31       -10.0694   -4.6794   12.7187 H           1 SU3       0.0285
     85 H32        -3.2756    7.7042    5.5386 H           1 SU3       0.0287
     86 H33        -3.0642    6.7031    6.9742 H           1 SU3       0.0287
     87 H34        -5.8139    7.6252    5.9941 H           1 SU3       0.0267
     88 H35        -4.7974    8.6065    7.0459 H           1 SU3       0.0267
     89 H36        -4.8036    6.8866    8.7886 H           1 SU3       0.0271
     90 H37        -5.7414    5.7942    7.7847 H           1 SU3       0.0271
     91 H38        -6.3325    6.8384   10.7078 H           1 SU3       0.0617
     92 H39        -8.0591    7.0901   10.5225 H           1 SU3       0.0617
     93 H40        -6.7620    9.5068    8.0330 H           1 SU3       0.0236
     94 H41        -5.9361    9.1546    9.5587 H           1 SU3       0.0236
     95 H42        -7.6998    9.2885    9.5048 H           1 SU3       0.0236
     96 H43        -8.2350    6.0855    7.4792 H           1 SU3       0.0236
     97 H44        -8.0481    7.7035    6.7949 H           1 SU3       0.0236
     98 H45        -9.0760    7.4610    8.2069 H           1 SU3       0.0236
     99 H46        -9.2492    0.0752   10.7810 H           1 SU3       0.0237
    100 H47        -9.6730    1.7762   11.0196 H           1 SU3       0.0237
    101 H48        -9.8802    0.6088   12.3270 H           1 SU3       0.0237
    102 H49        -6.1713    0.0711   12.9948 H           1 SU3       0.0237
    103 H50        -7.1316   -0.9032   11.8768 H           1 SU3       0.0237
    104 H51        -7.7931   -0.4552   13.4475 H           1 SU3       0.0237
    105 H52        -4.0745    0.0490   11.1336 H           1 SU3       0.0553
    106 H53        -3.9831    1.6113   10.2783 H           1 SU3       0.0553
@<TRIPOS>BOND
     1     1     3   2
     2     1     4   1
     3    21     1  am
     4     4     2   1
     5     2     7  am
     6     2    52   1
     7     4     5   1
     8     5     6   1
     9     6    52   1
    10     6    53   1
    11     7     8   2
    12     7     9   1
    13     9    10   1
    14     9    13   1
    15    10    11  am
    16    11    12   1
    17    11    14   2
    18    12    47   1
    19    13    20   1
    20    13    50   1
    21    13    51   1
    22    15    16   2
    23    15    17  am
    24    53    15   1
    25    17    26   1
    26    17    29   1
    27    18    19   1
    28    24    18   1
    29    22    21   1
    30    22    23   1
    31    22    24   1
    32    22    25   1
    33    23    35  am
    34    23    36   2
    35    24    25   1
    36    26    27   2
    37    27    28  ar
    38    27    30  ar
    39    28    29   2
    40    28    33  ar
    41    30    31  ar
    42    31    32  ar
    43    32    33  ar
    44    33    34   1
    45    34    43   1
    46    35    37  am
    47    37    38   1
    48    37    39   2
    49    37    40   2
    50    38    41   1
    51    38    42   1
    52    41    42   1
    53    43    44   1
    54    44    45   1
    55    45    46   1
    56    46    47   1
    57    46    48   1
    58    46    49   1
    59     4    54   1
    60     5    55   1
    61     5    56   1
    62     6    57   1
    63     9    58   1
    64    10    59   1
    65    18    60   1
    66    18    61   1
    67    19    62   1
    68    19    63   1
    69    19    64   1
    70    20    65   1
    71    20    66   1
    72    20    67   1
    73    21    68   1
    74    24    69   1
    75    25    70   1
    76    25    71   1
    77    26    72   1
    78    29    73   1
    79    30    74   1
    80    31    75   1
    81    32    76   1
    82    34    77   1
    83    34    78   1
    84    35    79   1
    85    38    80   1
    86    41    81   1
    87    41    82   1
    88    42    83   1
    89    42    84   1
    90    43    85   1
    91    43    86   1
    92    44    87   1
    93    44    88   1
    94    45    89   1
    95    45    90   1
    96    47    91   1
    97    47    92   1
    98    48    93   1
    99    48    94   1
   100    48    95   1
   101    49    96   1
   102    49    97   1
   103    49    98   1
   104    50    99   1
   105    50   100   1
   106    50   101   1
   107    51   102   1
   108    51   103   1
   109    51   104   1
   110    52   105   1
   111    52   106   1
@<TRIPOS>SUBSTRUCTURE
     1  SU3      1

