@<TRIPOS>MOLECULE
3su3_ligand_031
   106   111
SMALL
GAST_HUCK
****
This file was generated by PARSER (from files_GN.cpp)

@<TRIPOS>ATOM
      1 C         -16.4704   -6.5155   11.7377 C.2         1 SU3       0.2013
      2 N         -18.4943   -7.8303   11.2073 N.am        1 SU3      -0.2469
      3 O         -16.0786   -6.5601   10.5751 O.2         1 SU3      -0.3947
      4 CA        -17.4689   -7.4854   12.1768 C.3         1 SU3       0.1363
      5 CB        -16.7859   -8.8245   12.5454 C.3         1 SU3       0.0206
      6 CG        -17.8733   -9.8628   12.2494 C.3         1 SU3       0.1158
      7 CAF       -19.3014   -6.9333   10.6125 C.2         1 SU3       0.2070
      8 OAG       -19.2623   -5.7708   11.0155 O.2         1 SU3      -0.3942
      9 CAH       -20.2483   -7.2028    9.5146 C.3         1 SU3       0.1378
     10 NAI       -21.5780   -6.8982    9.9792 N.am        1 SU3      -0.2407
     11 CAJ       -22.6468   -7.7283    9.9753 C.2         1 SU3       0.3218
     12 OAK       -23.8543   -7.1946   10.3009 O.3         1 SU3      -0.2633
     13 CAL       -19.9302   -6.4784    8.1386 C.3         1 SU3       0.0025
     14 OAM       -22.5518   -9.0178    9.5670 O.2         1 SU3      -0.3774
     15 CAO       -18.6395  -10.4934   14.5667 C.2         1 SU3       0.4317
     16 OAP       -17.4658  -11.0907   14.8839 O.2         1 SU3      -0.3166
     17 NAQ       -19.6552  -10.4283   15.4654 N.am        1 SU3      -0.2080
     18 CAR       -14.0553   -3.0623   10.3320 C.3         1 SU3      -0.0516
     19 CAS       -14.3749   -3.0273    8.8196 C.3         1 SU3      -0.0651
     20 CAT       -19.9403   -4.9141    8.2385 C.3         1 SU3      -0.0558
     21 NAV       -15.9532   -5.6606   12.6123 N.am        1 SU3      -0.2737
     22 CAX       -14.9293   -4.7054   12.3263 C.3         1 SU3       0.1374
     23 CAY       -13.6483   -4.9681   12.9471 C.2         1 SU3       0.2444
     24 CAZ       -15.2001   -3.7235   11.1512 C.3         1 SU3      -0.0066
     25 CBA       -15.4115   -3.2681   12.5983 C.3         1 SU3      -0.0152
     26 CBB       -19.6518  -10.9499   16.7105 C.2         1 SU3       0.0383
     27 CBC       -20.8823  -10.6924   17.3064 C.ar        1 SU3      -0.0374
     28 CBD       -21.6468   -9.9711   16.3903 C.ar        1 SU3      -0.0293
     29 CBE       -20.8505   -9.8288   15.2556 C.2         1 SU3       0.0366
     30 CBF       -21.3889  -11.0433   18.5682 C.ar        1 SU3      -0.0689
     31 CBG       -22.7035  -10.6552   18.8906 C.ar        1 SU3      -0.0688
     32 CBH       -23.4801   -9.9224   17.9680 C.ar        1 SU3      -0.0606
     33 CBI       -22.9659   -9.5567   16.6993 C.ar        1 SU3      -0.0432
     34 CBJ       -23.7996   -8.7627   15.7548 C.3         1 SU3      -0.0194
     35 NBK       -13.5633   -5.0378   14.2633 N.am        1 SU3      -0.1552
     36 OBL       -12.7070   -5.2376   12.2079 O.2         1 SU3      -0.3404
     37 SBM       -12.1718   -5.4702   15.1168 S.o2        1 SU3       0.0645
     38 CBN       -12.5029   -5.5145   16.8961 C.3         1 SU3       0.1004
     39 OBO       -11.6930   -6.9058   14.6143 O.2         1 SU3      -0.1503
     40 OBP       -11.0340   -4.3915   14.8545 O.2         1 SU3      -0.1503
     41 CBQ       -13.5379   -6.5449   17.3711 C.3         1 SU3      -0.0268
     42 CBR       -12.0584   -6.7246   17.7333 C.3         1 SU3      -0.0268
     43 CBS       -24.9229   -9.6097   15.0985 C.3         1 SU3      -0.0433
     44 CBT       -25.7960   -8.8264   14.0776 C.3         1 SU3      -0.0507
     45 CBU       -25.1214   -8.6013   12.6897 C.3         1 SU3      -0.0453
     46 CBV       -25.9224   -7.7671   11.6216 C.3         1 SU3      -0.0072
     47 CBW       -25.1518   -7.8138   10.2553 C.3         1 SU3       0.0824
     48 CBX       -27.3487   -8.3678   11.3856 C.3         1 SU3      -0.0574
     49 CBY       -26.0724   -6.2760   12.0669 C.3         1 SU3      -0.0574
     50 CBZ       -18.5302   -6.9303    7.6000 C.3         1 SU3      -0.0558
     51 CCA       -21.0021   -6.8936    7.0710 C.3         1 SU3      -0.0558
     52 CD1       -18.5838   -9.2542   11.0287 C.3         1 SU3       0.0677
     53 OD2       -18.8095   -9.9521   13.3325 O.3         1 SU3      -0.2338
     54 H1        -17.9854   -7.1100   13.0686 H           1 SU3       0.0803
     55 H2        -16.4625   -8.8375   13.5916 H           1 SU3       0.0342
     56 H3        -15.9175   -9.0309   11.9112 H           1 SU3       0.0342
     57 H4        -17.4574  -10.8482   12.0154 H           1 SU3       0.0673
     58 H5        -20.1996   -8.2671    9.2807 H           1 SU3       0.0805
     59 H6        -21.7436   -5.9832   10.2588 H           1 SU3       0.1899
     60 H7        -13.9037   -2.0349   10.6771 H           1 SU3       0.0265
     61 H8        -13.1252   -3.6165   10.4777 H           1 SU3       0.0265
     62 H9        -13.5446   -2.5562    8.2897 H           1 SU3       0.0230
     63 H10       -15.2821   -2.4445    8.6286 H           1 SU3       0.0230
     64 H11       -14.5173   -4.0449    8.4410 H           1 SU3       0.0230
     65 H12       -19.8011   -4.4622    7.2519 H           1 SU3       0.0237
     66 H13       -19.1381   -4.5458    8.8812 H           1 SU3       0.0237
     67 H14       -20.8912   -4.5532    8.6369 H           1 SU3       0.0237
     68 H15       -16.2679   -5.7190   13.5314 H           1 SU3       0.1839
     69 H16       -16.1452   -3.9197   10.6284 H           1 SU3       0.0312
     70 H17       -14.6836   -2.5423   12.9810 H           1 SU3       0.0279
     71 H18       -16.4607   -3.1662   12.8929 H           1 SU3       0.0279
     72 H19       -18.8862  -11.4699   17.1499 H           1 SU3       0.0373
     73 H20       -21.1353   -9.3558   14.3954 H           1 SU3       0.0361
     74 H21       -20.8223  -11.5763   19.2314 H           1 SU3       0.0557
     75 H22       -23.0955  -10.9079   19.7971 H           1 SU3       0.0599
     76 H23       -24.4292   -9.6503   18.2343 H           1 SU3       0.0557
     77 H24       -23.1772   -8.3293   14.9722 H           1 SU3       0.0426
     78 H25       -24.2452   -7.9250   16.2984 H           1 SU3       0.0426
     79 H26       -14.3735   -4.8558   14.7771 H           1 SU3       0.2148
     80 H27       -12.5498   -4.5620   17.4319 H           1 SU3       0.0559
     81 H28       -13.9204   -7.2517   16.6317 H           1 SU3       0.0285
     82 H29       -14.1814   -6.2354   18.1936 H           1 SU3       0.0285
     83 H30       -11.8254   -6.5395   18.7824 H           1 SU3       0.0285
     84 H31       -11.5651   -7.5485   17.2142 H           1 SU3       0.0285
     85 H32       -25.5823   -9.9784   15.8899 H           1 SU3       0.0287
     86 H33       -24.4852  -10.4819   14.6046 H           1 SU3       0.0287
     87 H34       -26.0809   -7.8703   14.5192 H           1 SU3       0.0267
     88 H35       -26.7096   -9.4056   13.9269 H           1 SU3       0.0267
     89 H36       -24.9093   -9.5894   12.2714 H           1 SU3       0.0271
     90 H37       -24.1586   -8.1121   12.8481 H           1 SU3       0.0271
     91 H38       -25.0735   -8.8486    9.9118 H           1 SU3       0.0617
     92 H39       -25.7192   -7.2727    9.4941 H           1 SU3       0.0617
     93 H40       -27.9743   -8.2631   12.2734 H           1 SU3       0.0236
     94 H41       -27.2842   -9.4291   11.1348 H           1 SU3       0.0236
     95 H42       -27.8588   -7.8551   10.5662 H           1 SU3       0.0236
     96 H43       -25.0983   -5.8310   12.2812 H           1 SU3       0.0236
     97 H44       -26.6877   -6.1897   12.9638 H           1 SU3       0.0236
     98 H45       -26.5500   -5.6882   11.2796 H           1 SU3       0.0236
     99 H46       -18.4810   -8.0188    7.5186 H           1 SU3       0.0237
    100 H47       -17.7295   -6.6029    8.2667 H           1 SU3       0.0237
    101 H48       -18.3324   -6.5055    6.6128 H           1 SU3       0.0237
    102 H49       -21.9979   -6.5545    7.3645 H           1 SU3       0.0237
    103 H50       -21.0323   -7.9794    6.9542 H           1 SU3       0.0237
    104 H51       -20.7742   -6.4589    6.0944 H           1 SU3       0.0237
    105 H52       -18.0866   -9.5432   10.0961 H           1 SU3       0.0553
    106 H53       -19.6188   -9.6088   11.0155 H           1 SU3       0.0553
@<TRIPOS>BOND
     1     1     3   2
     2     1     4   1
     3    21     1  am
     4     4     2   1
     5     2     7  am
     6     2    52   1
     7     4     5   1
     8     5     6   1
     9     6    52   1
    10     6    53   1
    11     7     8   2
    12     7     9   1
    13     9    10   1
    14     9    13   1
    15    10    11  am
    16    11    12   1
    17    11    14   2
    18    12    47   1
    19    13    20   1
    20    13    50   1
    21    13    51   1
    22    15    16   2
    23    15    17  am
    24    53    15   1
    25    17    26   1
    26    17    29   1
    27    18    19   1
    28    24    18   1
    29    22    21   1
    30    22    23   1
    31    22    24   1
    32    22    25   1
    33    23    35  am
    34    23    36   2
    35    24    25   1
    36    26    27   2
    37    27    28  ar
    38    27    30  ar
    39    28    29   2
    40    28    33  ar
    41    30    31  ar
    42    31    32  ar
    43    32    33  ar
    44    33    34   1
    45    34    43   1
    46    35    37  am
    47    37    38   1
    48    37    39   2
    49    37    40   2
    50    38    41   1
    51    38    42   1
    52    41    42   1
    53    43    44   1
    54    44    45   1
    55    45    46   1
    56    46    47   1
    57    46    48   1
    58    46    49   1
    59     4    54   1
    60     5    55   1
    61     5    56   1
    62     6    57   1
    63     9    58   1
    64    10    59   1
    65    18    60   1
    66    18    61   1
    67    19    62   1
    68    19    63   1
    69    19    64   1
    70    20    65   1
    71    20    66   1
    72    20    67   1
    73    21    68   1
    74    24    69   1
    75    25    70   1
    76    25    71   1
    77    26    72   1
    78    29    73   1
    79    30    74   1
    80    31    75   1
    81    32    76   1
    82    34    77   1
    83    34    78   1
    84    35    79   1
    85    38    80   1
    86    41    81   1
    87    41    82   1
    88    42    83   1
    89    42    84   1
    90    43    85   1
    91    43    86   1
    92    44    87   1
    93    44    88   1
    94    45    89   1
    95    45    90   1
    96    47    91   1
    97    47    92   1
    98    48    93   1
    99    48    94   1
   100    48    95   1
   101    49    96   1
   102    49    97   1
   103    49    98   1
   104    50    99   1
   105    50   100   1
   106    50   101   1
   107    51   102   1
   108    51   103   1
   109    51   104   1
   110    52   105   1
   111    52   106   1
@<TRIPOS>SUBSTRUCTURE
     1  SU3      1

