@<TRIPOS>MOLECULE
3su3_ligand_034
   106   111
SMALL
GAST_HUCK
****
This file was generated by PARSER (from files_GN.cpp)

@<TRIPOS>ATOM
      1 C          -7.8226   -4.3593   11.0093 C.2         1 SU3       0.2013
      2 N          -6.5939   -3.0763    9.2133 N.am        1 SU3      -0.2469
      3 O          -8.2874   -3.4104   11.6354 O.2         1 SU3      -0.3947
      4 CA         -7.4992   -4.1618    9.5831 C.3         1 SU3       0.1363
      5 CB         -6.8819   -5.4114    8.8958 C.3         1 SU3       0.0206
      6 CG         -6.1216   -4.8414    7.6997 C.3         1 SU3       0.1158
      7 CAF        -6.7205   -1.7779    9.5674 C.2         1 SU3       0.2070
      8 OAG        -7.7438   -1.4094   10.1301 O.2         1 SU3      -0.3942
      9 CAH        -5.7179   -0.7094    9.3734 C.3         1 SU3       0.1378
     10 NAI        -6.3176    0.3094    8.5521 N.am        1 SU3      -0.2407
     11 CAJ        -5.8614    0.8206    7.3888 C.2         1 SU3       0.3218
     12 OAK        -6.5540    1.8795    6.8879 O.3         1 SU3      -0.2633
     13 CAL        -5.1234   -0.1031   10.7234 C.3         1 SU3       0.0025
     14 OAM        -4.7315    0.3726    6.7955 O.2         1 SU3      -0.3774
     15 CAO        -7.5543   -5.4423    5.7147 C.2         1 SU3       0.4317
     16 OAP        -7.2992   -6.7677    5.8277 O.2         1 SU3      -0.3166
     17 NAQ        -8.3584   -4.9665    4.7335 N.am        1 SU3      -0.2080
     18 CAR        -7.4171   -7.7038   14.7693 C.3         1 SU3      -0.0516
     19 CAS        -6.8308   -9.0552   14.3086 C.3         1 SU3      -0.0651
     20 CAT        -5.9137    1.1434   11.2443 C.3         1 SU3      -0.0558
     21 NAV        -7.8208   -5.5547   11.5940 N.am        1 SU3      -0.2737
     22 CAX        -8.2355   -5.8526   12.9312 C.3         1 SU3       0.1374
     23 CAY        -9.6555   -6.0626   13.1606 C.2         1 SU3       0.2444
     24 CAZ        -7.1251   -6.6026   13.7172 C.3         1 SU3      -0.0066
     25 CBA        -7.4890   -5.1654   14.0979 C.3         1 SU3      -0.0152
     26 CBB        -8.9657   -5.6944    3.7719 C.2         1 SU3       0.0383
     27 CBC        -9.6889   -4.8368    2.9504 C.ar        1 SU3      -0.0374
     28 CBD        -9.5223   -3.5448    3.4452 C.ar        1 SU3      -0.0293
     29 CBE        -8.6847   -3.6639    4.5528 C.2         1 SU3       0.0366
     30 CBF       -10.4651   -5.0856    1.8082 C.ar        1 SU3      -0.0689
     31 CBG       -11.0782   -3.9920    1.1637 C.ar        1 SU3      -0.0688
     32 CBH       -10.9164   -2.6847    1.6634 C.ar        1 SU3      -0.0606
     33 CBI       -10.1339   -2.4301    2.8228 C.ar        1 SU3      -0.0432
     34 CBJ        -9.9740   -1.0402    3.3311 C.3         1 SU3      -0.0194
     35 NBK       -10.2202   -7.2167   12.8464 N.am        1 SU3      -0.1552
     36 OBL       -10.3239   -5.1166   13.5664 O.2         1 SU3      -0.3404
     37 SBM       -11.8486   -7.5852   13.1048 S.o2        1 SU3       0.0645
     38 CBN       -12.3080   -8.0332   14.7995 C.3         1 SU3       0.1004
     39 OBO       -12.8139   -6.5215   12.4207 O.2         1 SU3      -0.1503
     40 OBP       -12.1007   -8.8871   12.2309 O.2         1 SU3      -0.1503
     41 CBQ       -11.6818   -7.2330   15.9527 C.3         1 SU3      -0.0268
     42 CBR       -13.1671   -7.0557   15.6166 C.3         1 SU3      -0.0268
     43 CBS        -9.0184   -0.1992    2.4427 C.3         1 SU3      -0.0433
     44 CBT        -8.7758    1.2474    2.9566 C.3         1 SU3      -0.0507
     45 CBU        -7.7394    1.3548    4.1173 C.3         1 SU3      -0.0453
     46 CBV        -7.4804    2.7837    4.7308 C.3         1 SU3      -0.0072
     47 CBW        -6.2781    2.6935    5.7388 C.3         1 SU3       0.0824
     48 CBX        -7.1065    3.8177    3.6172 C.3         1 SU3      -0.0574
     49 CBY        -8.7428    3.3058    5.4918 C.3         1 SU3      -0.0574
     50 CBZ        -5.0971   -1.1599   11.8800 C.3         1 SU3      -0.0558
     51 CCA        -3.6394    0.3495   10.4770 C.3         1 SU3      -0.0558
     52 CD1        -5.5997   -3.5144    8.2701 C.3         1 SU3       0.0677
     53 OD2        -6.9835   -4.5694    6.5882 O.3         1 SU3      -0.2338
     54 H1         -8.4501   -3.9800    9.0749 H           1 SU3       0.0803
     55 H2         -7.6471   -6.1345    8.5931 H           1 SU3       0.0342
     56 H3         -6.1538   -5.9074    9.5467 H           1 SU3       0.0342
     57 H4         -5.2983   -5.4885    7.3861 H           1 SU3       0.0673
     58 H5         -4.8684   -1.1338    8.8391 H           1 SU3       0.0805
     59 H6         -7.1234    0.7233    8.9059 H           1 SU3       0.1899
     60 H7         -6.9446   -7.4210   15.7141 H           1 SU3       0.0265
     61 H8         -8.4884   -7.8127   14.9447 H           1 SU3       0.0265
     62 H9         -7.1839   -9.8540   14.9601 H           1 SU3       0.0230
     63 H10        -5.7373   -9.0198   14.3519 H           1 SU3       0.0230
     64 H11        -7.1385   -9.2789   13.2849 H           1 SU3       0.0230
     65 H12        -5.5088    1.5024   12.1940 H           1 SU3       0.0237
     66 H13        -6.9672    0.9004   11.3927 H           1 SU3       0.0237
     67 H14        -5.8566    1.9699   10.5303 H           1 SU3       0.0237
     68 H15        -7.5569   -6.3235   11.0574 H           1 SU3       0.1839
     69 H16        -6.1424   -6.6441   13.2385 H           1 SU3       0.0312
     70 H17        -8.0235   -5.0516   15.0456 H           1 SU3       0.0279
     71 H18        -6.7507   -4.4090   13.8227 H           1 SU3       0.0279
     72 H19        -8.9023   -6.7081    3.6498 H           1 SU3       0.0373
     73 H20        -8.3647   -2.8863    5.1338 H           1 SU3       0.0361
     74 H21       -10.5759   -6.0354    1.4467 H           1 SU3       0.0557
     75 H22       -11.6444   -4.1515    0.3261 H           1 SU3       0.0599
     76 H23       -11.3758   -1.9107    1.1782 H           1 SU3       0.0557
     77 H24        -9.5951   -1.0487    4.3522 H           1 SU3       0.0426
     78 H25       -10.9564   -0.5626    3.3685 H           1 SU3       0.0426
     79 H26        -9.6590   -7.9121   12.4635 H           1 SU3       0.2148
     80 H27       -12.4637   -9.0919   15.0230 H           1 SU3       0.0559
     81 H28       -11.0545   -6.3742   15.7054 H           1 SU3       0.0285
     82 H29       -11.4843   -7.7893   16.8710 H           1 SU3       0.0285
     83 H30       -13.8563   -7.5053   16.3347 H           1 SU3       0.0285
     84 H31       -13.4162   -6.0917   15.1655 H           1 SU3       0.0285
     85 H32        -9.4530   -0.1305    1.4415 H           1 SU3       0.0287
     86 H33        -8.0582   -0.7133    2.3466 H           1 SU3       0.0287
     87 H34        -9.7301    1.6806    3.2607 H           1 SU3       0.0267
     88 H35        -8.4044    1.8301    2.1105 H           1 SU3       0.0267
     89 H36        -6.7904    0.9655    3.7367 H           1 SU3       0.0271
     90 H37        -8.0533    0.6894    4.9241 H           1 SU3       0.0271
     91 H38        -5.3824    2.3387    5.2228 H           1 SU3       0.0617
     92 H39        -6.0498    3.6877    6.1258 H           1 SU3       0.0617
     93 H40        -7.9491    3.9993    2.9473 H           1 SU3       0.0236
     94 H41        -6.2662    3.4583    3.0188 H           1 SU3       0.0236
     95 H42        -6.8270    4.7806    4.0525 H           1 SU3       0.0236
     96 H43        -9.0661    2.5884    6.2488 H           1 SU3       0.0236
     97 H44        -9.5764    3.4727    4.8070 H           1 SU3       0.0236
     98 H45        -8.5293    4.2540    5.9907 H           1 SU3       0.0236
     99 H46        -4.6603   -2.0922   11.5275 H           1 SU3       0.0237
    100 H47        -6.1086   -1.3751   12.2386 H           1 SU3       0.0237
    101 H48        -4.5184   -0.8105   12.7336 H           1 SU3       0.0237
    102 H49        -3.5922    1.1038    9.6911 H           1 SU3       0.0237
    103 H50        -3.0241   -0.4976   10.1624 H           1 SU3       0.0237
    104 H51        -3.1903    0.7663   11.3800 H           1 SU3       0.0237
    105 H52        -4.6403   -3.6575    8.7756 H           1 SU3       0.0553
    106 H53        -5.4673   -2.8094    7.4430 H           1 SU3       0.0553
@<TRIPOS>BOND
     1     1     3   2
     2     1     4   1
     3    21     1  am
     4     4     2   1
     5     2     7  am
     6     2    52   1
     7     4     5   1
     8     5     6   1
     9     6    52   1
    10     6    53   1
    11     7     8   2
    12     7     9   1
    13     9    10   1
    14     9    13   1
    15    10    11  am
    16    11    12   1
    17    11    14   2
    18    12    47   1
    19    13    20   1
    20    13    50   1
    21    13    51   1
    22    15    16   2
    23    15    17  am
    24    53    15   1
    25    17    26   1
    26    17    29   1
    27    18    19   1
    28    24    18   1
    29    22    21   1
    30    22    23   1
    31    22    24   1
    32    22    25   1
    33    23    35  am
    34    23    36   2
    35    24    25   1
    36    26    27   2
    37    27    28  ar
    38    27    30  ar
    39    28    29   2
    40    28    33  ar
    41    30    31  ar
    42    31    32  ar
    43    32    33  ar
    44    33    34   1
    45    34    43   1
    46    35    37  am
    47    37    38   1
    48    37    39   2
    49    37    40   2
    50    38    41   1
    51    38    42   1
    52    41    42   1
    53    43    44   1
    54    44    45   1
    55    45    46   1
    56    46    47   1
    57    46    48   1
    58    46    49   1
    59     4    54   1
    60     5    55   1
    61     5    56   1
    62     6    57   1
    63     9    58   1
    64    10    59   1
    65    18    60   1
    66    18    61   1
    67    19    62   1
    68    19    63   1
    69    19    64   1
    70    20    65   1
    71    20    66   1
    72    20    67   1
    73    21    68   1
    74    24    69   1
    75    25    70   1
    76    25    71   1
    77    26    72   1
    78    29    73   1
    79    30    74   1
    80    31    75   1
    81    32    76   1
    82    34    77   1
    83    34    78   1
    84    35    79   1
    85    38    80   1
    86    41    81   1
    87    41    82   1
    88    42    83   1
    89    42    84   1
    90    43    85   1
    91    43    86   1
    92    44    87   1
    93    44    88   1
    94    45    89   1
    95    45    90   1
    96    47    91   1
    97    47    92   1
    98    48    93   1
    99    48    94   1
   100    48    95   1
   101    49    96   1
   102    49    97   1
   103    49    98   1
   104    50    99   1
   105    50   100   1
   106    50   101   1
   107    51   102   1
   108    51   103   1
   109    51   104   1
   110    52   105   1
   111    52   106   1
@<TRIPOS>SUBSTRUCTURE
     1  SU3      1

