@<TRIPOS>MOLECULE
3su3_ligand_082
   106   111
SMALL
GAST_HUCK
****
This file was generated by PARSER (from files_GN.cpp)

@<TRIPOS>ATOM
      1 C         -12.5704   -8.1248   12.4479 C.2         1 SU3       0.2013
      2 N         -12.6900  -10.4537   11.5481 N.am        1 SU3      -0.2469
      3 O         -13.2832   -8.4652   13.3789 O.2         1 SU3      -0.3947
      4 CA        -12.0335   -9.1516   11.5470 C.3         1 SU3       0.1363
      5 CB        -12.1010   -8.6954   10.0642 C.3         1 SU3       0.0206
      6 CG        -12.2038  -10.0034    9.2738 C.3         1 SU3       0.1158
      7 CAF       -12.8381  -11.2422   12.6327 C.2         1 SU3       0.2070
      8 OAG       -12.2147  -10.9440   13.6447 O.2         1 SU3      -0.3942
      9 CAH       -13.6843  -12.4470   12.7316 C.3         1 SU3       0.1378
     10 NAI       -12.8204  -13.5533   13.0364 N.am        1 SU3      -0.2407
     11 CAJ       -12.7044  -14.7088   12.3507 C.2         1 SU3       0.3218
     12 OAK       -11.9482  -15.6689   12.9389 O.3         1 SU3      -0.2633
     13 CAL       -14.8904  -12.3710   13.7628 C.3         1 SU3       0.0025
     14 OAM       -13.3784  -14.9451   11.1995 O.2         1 SU3      -0.3774
     15 CAO        -9.8951  -10.2402    8.2673 C.2         1 SU3       0.4317
     16 OAP       -10.0460   -9.1566    7.4679 O.2         1 SU3      -0.3166
     17 NAQ        -8.7375  -10.9511    8.2562 N.am        1 SU3      -0.2080
     18 CAR       -12.2050   -4.4080   15.4204 C.3         1 SU3      -0.0516
     19 CAS       -12.6268   -5.3402   16.5727 C.3         1 SU3      -0.0651
     20 CAT       -14.4348  -12.2887   15.2597 C.3         1 SU3      -0.0558
     21 NAV       -12.2435   -6.8440   12.2993 N.am        1 SU3      -0.2737
     22 CAX       -12.7023   -5.7260   13.0814 C.3         1 SU3       0.1374
     23 CAY       -14.1358   -5.4671   13.1661 C.2         1 SU3       0.2444
     24 CAZ       -11.7399   -5.2141   14.1806 C.3         1 SU3      -0.0066
     25 CBA       -11.8197   -4.4777   12.8376 C.3         1 SU3      -0.0152
     26 CBB        -7.6429  -10.7049    7.4992 C.2         1 SU3       0.0383
     27 CBC        -6.6740  -11.6624    7.7815 C.ar        1 SU3      -0.0374
     28 CBD        -7.2039  -12.5136    8.7497 C.ar        1 SU3      -0.0293
     29 CBE        -8.4874  -12.0413    9.0165 C.2         1 SU3       0.0366
     30 CBF        -5.3782  -11.8576    7.2729 C.ar        1 SU3      -0.0689
     31 CBG        -4.6197  -12.9400    7.7621 C.ar        1 SU3      -0.0688
     32 CBH        -5.1556  -13.8037    8.7425 C.ar        1 SU3      -0.0606
     33 CBI        -6.4615  -13.6049    9.2604 C.ar        1 SU3      -0.0432
     34 CBJ        -7.0073  -14.5160   10.3027 C.3         1 SU3      -0.0194
     35 NBK       -14.8880   -6.3061   13.8547 N.am        1 SU3      -0.1552
     36 OBL       -14.6442   -4.6159   12.4461 O.2         1 SU3      -0.3404
     37 SBM       -16.5586   -6.4781   13.7081 S.o2        1 SU3       0.0645
     38 CBN       -17.2407   -6.7877   12.0587 C.3         1 SU3       0.1004
     39 OBO       -16.9105   -7.7652   14.5731 O.2         1 SU3      -0.1503
     40 OBP       -17.3128   -5.2845   14.4381 O.2         1 SU3      -0.1503
     41 CBQ       -16.3234   -6.7966   10.8245 C.3         1 SU3      -0.0268
     42 CBR       -16.8800   -8.1140   11.3709 C.3         1 SU3      -0.0268
     43 CBS        -7.5407  -15.8439    9.7036 C.3         1 SU3      -0.0433
     44 CBT        -8.1365  -16.8155   10.7613 C.3         1 SU3      -0.0507
     45 CBU        -9.5792  -16.4640   11.2381 C.3         1 SU3      -0.0453
     46 CBV       -10.2020  -17.3637   12.3733 C.3         1 SU3      -0.0072
     47 CBW       -11.7244  -17.0222   12.5250 C.3         1 SU3       0.0824
     48 CBX       -10.0981  -18.8847   12.0234 C.3         1 SU3      -0.0574
     49 CBY        -9.4888  -17.1076   13.7422 C.3         1 SU3      -0.0574
     50 CBZ       -15.7889  -11.1310   13.4498 C.3         1 SU3      -0.0558
     51 CCA       -15.7917  -13.6464   13.6142 C.3         1 SU3      -0.0558
     52 CD1       -13.0590  -10.8621   10.2206 C.3         1 SU3       0.0677
     53 OD2       -10.9178  -10.6198    9.0839 O.3         1 SU3      -0.2338
     54 H1        -10.9820   -9.3013   11.8108 H           1 SU3       0.0803
     55 H2        -11.2217   -8.1126    9.7801 H           1 SU3       0.0342
     56 H3        -12.9973   -8.0955    9.8689 H           1 SU3       0.0342
     57 H4        -12.7017   -9.8667    8.3095 H           1 SU3       0.0673
     58 H5        -14.1527  -12.6212   11.7630 H           1 SU3       0.0805
     59 H6        -12.3180  -13.4958   13.8650 H           1 SU3       0.1899
     60 H7        -11.3674   -3.7914   15.7555 H           1 SU3       0.0265
     61 H8        -13.0364   -3.7402   15.1801 H           1 SU3       0.0265
     62 H9        -12.8746   -4.7437   17.4511 H           1 SU3       0.0230
     63 H10       -11.8151   -6.0234   16.8312 H           1 SU3       0.0230
     64 H11       -13.5052   -5.9212   16.2890 H           1 SU3       0.0230
     65 H12       -15.2976  -12.3085   15.9299 H           1 SU3       0.0237
     66 H13       -13.8900  -11.3669   15.4640 H           1 SU3       0.0237
     67 H14       -13.7923  -13.1325   15.5195 H           1 SU3       0.0237
     68 H15       -11.6400   -6.6370   11.5678 H           1 SU3       0.1839
     69 H16       -10.8151   -5.7864   14.2911 H           1 SU3       0.0312
     70 H17       -12.3212   -3.5078   12.8500 H           1 SU3       0.0279
     71 H18       -10.9438   -4.5930   12.1951 H           1 SU3       0.0279
     72 H19        -7.5321   -9.9460    6.8220 H           1 SU3       0.0373
     73 H20        -9.1385  -12.4602    9.6839 H           1 SU3       0.0361
     74 H21        -4.9940  -11.2309    6.5624 H           1 SU3       0.0557
     75 H22        -3.6749  -13.1011    7.4052 H           1 SU3       0.0599
     76 H23        -4.5812  -14.5791    9.0827 H           1 SU3       0.0557
     77 H24        -7.8144  -14.0249   10.8439 H           1 SU3       0.0426
     78 H25        -6.2253  -14.7301   11.0368 H           1 SU3       0.0426
     79 H26       -14.4354   -6.9630   14.4041 H           1 SU3       0.2148
     80 H27       -18.2686   -6.4720   11.8753 H           1 SU3       0.0559
     81 H28       -15.2469   -6.6993   10.9599 H           1 SU3       0.0285
     82 H29       -16.7641   -6.4805    9.8783 H           1 SU3       0.0285
     83 H30       -17.6496   -8.5725   10.7462 H           1 SU3       0.0285
     84 H31       -16.1173   -8.7450   11.8243 H           1 SU3       0.0285
     85 H32        -6.7100  -16.3526    9.2055 H           1 SU3       0.0287
     86 H33        -8.2972  -15.6282    8.9434 H           1 SU3       0.0287
     87 H34        -7.4611  -16.8586   11.6164 H           1 SU3       0.0267
     88 H35        -8.1578  -17.8088   10.3072 H           1 SU3       0.0267
     89 H36       -10.2272  -16.5104   10.3580 H           1 SU3       0.0271
     90 H37        -9.5875  -15.4260   11.5796 H           1 SU3       0.0271
     91 H38       -12.2534  -17.2379   11.5920 H           1 SU3       0.0617
     92 H39       -12.1698  -17.6533   13.2986 H           1 SU3       0.0617
     93 H40        -9.0590  -19.2177   12.0081 H           1 SU3       0.0236
     94 H41       -10.5382  -19.0837   11.0438 H           1 SU3       0.0236
     95 H42       -10.6241  -19.4928   12.7632 H           1 SU3       0.0236
     96 H43        -9.4918  -16.0446   13.9954 H           1 SU3       0.0236
     97 H44        -8.4536  -17.4415   13.7124 H           1 SU3       0.0236
     98 H45        -9.9863  -17.6506   14.5493 H           1 SU3       0.0236
     99 H46       -16.1070  -11.1432   12.4051 H           1 SU3       0.0237
    100 H47       -15.2449  -10.2057   13.6339 H           1 SU3       0.0237
    101 H48       -16.6827  -11.1154   14.0774 H           1 SU3       0.0237
    102 H49       -15.2382  -14.5500   13.8748 H           1 SU3       0.0237
    103 H50       -16.1532  -13.7531   12.5889 H           1 SU3       0.0237
    104 H51       -16.6637  -13.5930   14.2707 H           1 SU3       0.0237
    105 H52       -14.1251  -10.6729   10.0614 H           1 SU3       0.0553
    106 H53       -12.8457  -11.9169   10.0243 H           1 SU3       0.0553
@<TRIPOS>BOND
     1     1     3   2
     2     1     4   1
     3    21     1  am
     4     4     2   1
     5     2     7  am
     6     2    52   1
     7     4     5   1
     8     5     6   1
     9     6    52   1
    10     6    53   1
    11     7     8   2
    12     7     9   1
    13     9    10   1
    14     9    13   1
    15    10    11  am
    16    11    12   1
    17    11    14   2
    18    12    47   1
    19    13    20   1
    20    13    50   1
    21    13    51   1
    22    15    16   2
    23    15    17  am
    24    53    15   1
    25    17    26   1
    26    17    29   1
    27    18    19   1
    28    24    18   1
    29    22    21   1
    30    22    23   1
    31    22    24   1
    32    22    25   1
    33    23    35  am
    34    23    36   2
    35    24    25   1
    36    26    27   2
    37    27    28  ar
    38    27    30  ar
    39    28    29   2
    40    28    33  ar
    41    30    31  ar
    42    31    32  ar
    43    32    33  ar
    44    33    34   1
    45    34    43   1
    46    35    37  am
    47    37    38   1
    48    37    39   2
    49    37    40   2
    50    38    41   1
    51    38    42   1
    52    41    42   1
    53    43    44   1
    54    44    45   1
    55    45    46   1
    56    46    47   1
    57    46    48   1
    58    46    49   1
    59     4    54   1
    60     5    55   1
    61     5    56   1
    62     6    57   1
    63     9    58   1
    64    10    59   1
    65    18    60   1
    66    18    61   1
    67    19    62   1
    68    19    63   1
    69    19    64   1
    70    20    65   1
    71    20    66   1
    72    20    67   1
    73    21    68   1
    74    24    69   1
    75    25    70   1
    76    25    71   1
    77    26    72   1
    78    29    73   1
    79    30    74   1
    80    31    75   1
    81    32    76   1
    82    34    77   1
    83    34    78   1
    84    35    79   1
    85    38    80   1
    86    41    81   1
    87    41    82   1
    88    42    83   1
    89    42    84   1
    90    43    85   1
    91    43    86   1
    92    44    87   1
    93    44    88   1
    94    45    89   1
    95    45    90   1
    96    47    91   1
    97    47    92   1
    98    48    93   1
    99    48    94   1
   100    48    95   1
   101    49    96   1
   102    49    97   1
   103    49    98   1
   104    50    99   1
   105    50   100   1
   106    50   101   1
   107    51   102   1
   108    51   103   1
   109    51   104   1
   110    52   105   1
   111    52   106   1
@<TRIPOS>SUBSTRUCTURE
     1  SU3      1

