@<TRIPOS>MOLECULE
3su3_ligand_080
   106   111
SMALL
GAST_HUCK
****
This file was generated by PARSER (from files_GN.cpp)

@<TRIPOS>ATOM
      1 C         -11.9348   -7.7920    5.1969 C.2         1 SU3       0.2013
      2 N         -11.5042   -6.2963    7.0830 N.am        1 SU3      -0.2469
      3 O         -11.9655   -9.0022    5.0068 O.2         1 SU3      -0.3947
      4 CA        -12.4099   -7.2487    6.4672 C.3         1 SU3       0.1363
      5 CB        -13.7512   -6.4889    6.3103 C.3         1 SU3       0.0206
      6 CG        -13.6690   -5.3971    7.3887 C.3         1 SU3       0.1158
      7 CAF       -10.2130   -6.5599    7.3649 C.2         1 SU3       0.2070
      8 OAG        -9.8296   -7.7192    7.2344 O.2         1 SU3      -0.3942
      9 CAH        -9.1927   -5.5962    7.8256 C.3         1 SU3       0.1378
     10 NAI        -8.6261   -6.1040    9.0500 N.am        1 SU3      -0.2407
     11 CAJ        -8.5279   -5.4530   10.2314 C.2         1 SU3       0.3218
     12 OAK        -7.8874   -6.0882   11.2485 O.3         1 SU3      -0.2633
     13 CAL        -8.0782   -5.2469    6.7507 C.3         1 SU3       0.0025
     14 OAM        -8.9649   -4.1792   10.3842 O.2         1 SU3      -0.3774
     15 CAO       -15.2456   -6.2401    9.1778 C.2         1 SU3       0.4317
     16 OAP       -16.3493   -6.0479    8.4161 O.2         1 SU3      -0.3166
     17 NAQ       -15.3373   -6.7674   10.4244 N.am        1 SU3      -0.2080
     18 CAR       -11.1054   -9.3574    1.1641 C.3         1 SU3      -0.0516
     19 CAS       -10.3361   -8.8307   -0.0746 C.3         1 SU3      -0.0651
     20 CAT        -6.8617   -4.5301    7.4364 C.3         1 SU3      -0.0558
     21 NAV       -11.4240   -6.9774    4.2842 N.am        1 SU3      -0.2737
     22 CAX       -10.9030   -7.3778    3.0150 C.3         1 SU3       0.1374
     23 CAY        -9.4643   -7.2611    2.8429 C.2         1 SU3       0.2444
     24 CAZ       -11.7610   -8.3212    2.1263 C.3         1 SU3      -0.0066
     25 CBA       -11.7627   -6.8096    1.8563 C.3         1 SU3      -0.0152
     26 CBB       -16.4782   -7.1291   11.0565 C.2         1 SU3       0.0383
     27 CBC       -16.1534   -7.6329   12.3116 C.ar        1 SU3      -0.0374
     28 CBD       -14.7661   -7.5832   12.4340 C.ar        1 SU3      -0.0293
     29 CBE       -14.2951   -7.0316   11.2443 C.2         1 SU3       0.0366
     30 CBF       -16.9612   -8.1251   13.3514 C.ar        1 SU3      -0.0689
     31 CBG       -16.3367   -8.5677   14.5358 C.ar        1 SU3      -0.0688
     32 CBH       -14.9308   -8.5223   14.6602 C.ar        1 SU3      -0.0606
     33 CBI       -14.1144   -8.0373   13.6079 C.ar        1 SU3      -0.0432
     34 CBJ       -12.6320   -8.0133   13.7585 C.3         1 SU3      -0.0194
     35 NBK        -8.6903   -8.2730    3.2004 N.am        1 SU3      -0.1552
     36 OBL        -9.0085   -6.2108    2.4015 O.2         1 SU3      -0.3404
     37 SBM        -7.0277   -8.4026    2.9206 S.o2        1 SU3       0.0645
     38 CBN        -6.2356   -9.4130    4.1915 C.3         1 SU3       0.1004
     39 OBO        -6.8184   -9.1176    1.5141 O.2         1 SU3      -0.1503
     40 OBP        -6.3124   -6.9824    2.8705 O.2         1 SU3      -0.1503
     41 CBQ        -4.7291   -9.6641    4.0178 C.3         1 SU3      -0.0268
     42 CBR        -5.2363   -8.7965    5.1810 C.3         1 SU3      -0.0268
     43 CBS       -12.1522   -6.7825   14.5748 C.3         1 SU3      -0.0433
     44 CBT       -10.6177   -6.7264   14.8201 C.3         1 SU3      -0.0507
     45 CBU        -9.7721   -6.3053   13.5804 C.3         1 SU3      -0.0453
     46 CBV        -8.2024   -6.3287   13.7291 C.3         1 SU3      -0.0072
     47 CBW        -7.5506   -5.5505   12.5368 C.3         1 SU3       0.0824
     48 CBX        -7.7431   -5.6256   15.0473 C.3         1 SU3      -0.0574
     49 CBY        -7.6654   -7.7966   13.7298 C.3         1 SU3      -0.0574
     50 CBZ        -7.5162   -6.5005    6.0003 C.3         1 SU3      -0.0558
     51 CCA        -8.6712   -4.2620    5.6849 C.3         1 SU3      -0.0558
     52 CD1       -12.1671   -5.0606    7.3975 C.3         1 SU3       0.0677
     53 OD2       -14.0237   -5.9078    8.6845 O.3         1 SU3      -0.2338
     54 H1        -12.5699   -8.0607    7.1840 H           1 SU3       0.0803
     55 H2        -14.6120   -7.1457    6.4592 H           1 SU3       0.0342
     56 H3        -13.8490   -6.0082    5.3316 H           1 SU3       0.0342
     57 H4        -14.2730   -4.5170    7.1438 H           1 SU3       0.0673
     58 H5         -9.6803   -4.6485    8.0501 H           1 SU3       0.0805
     59 H6         -8.2309   -6.9884    9.0096 H           1 SU3       0.1899
     60 H7        -10.4377   -9.9905    1.7546 H           1 SU3       0.0265
     61 H8        -11.9100  -10.0031    0.7962 H           1 SU3       0.0265
     62 H9         -9.9420   -9.6751   -0.6529 H           1 SU3       0.0230
     63 H10        -9.4961   -8.1970    0.2283 H           1 SU3       0.0230
     64 H11       -11.0096   -8.2500   -0.7139 H           1 SU3       0.0230
     65 H12        -6.1347   -4.1860    6.6963 H           1 SU3       0.0237
     66 H13        -6.3433   -5.2098    8.1168 H           1 SU3       0.0237
     67 H14        -7.1851   -3.6620    8.0122 H           1 SU3       0.0237
     68 H15       -11.3870   -6.0313    4.4966 H           1 SU3       0.1839
     69 H16       -12.6677   -8.6675    2.6304 H           1 SU3       0.0312
     70 H17       -11.2268   -6.4498    0.9742 H           1 SU3       0.0279
     71 H18       -12.6857   -6.2901    2.1385 H           1 SU3       0.0279
     72 H19       -17.4278   -7.0483   10.6876 H           1 SU3       0.0373
     73 H20       -13.3115   -6.8574   11.0310 H           1 SU3       0.0361
     74 H21       -17.9782   -8.1548   13.2547 H           1 SU3       0.0557
     75 H22       -16.9040   -8.9216   15.3054 H           1 SU3       0.0599
     76 H23       -14.5048   -8.8512   15.5306 H           1 SU3       0.0557
     77 H24       -12.1547   -8.0105   12.7781 H           1 SU3       0.0426
     78 H25       -12.3111   -8.9317   14.2576 H           1 SU3       0.0426
     79 H26        -9.1249   -9.0548    3.5839 H           1 SU3       0.2148
     80 H27        -6.7804  -10.2834    4.5523 H           1 SU3       0.0559
     81 H28        -4.2074   -9.1124    3.2313 H           1 SU3       0.0285
     82 H29        -4.3626  -10.6493    4.3063 H           1 SU3       0.0285
     83 H30        -5.1891   -9.2687    6.1668 H           1 SU3       0.0285
     84 H31        -5.0019   -7.7360    5.0830 H           1 SU3       0.0285
     85 H32       -12.6439   -6.8058   15.5511 H           1 SU3       0.0287
     86 H33       -12.4672   -5.8652   14.0703 H           1 SU3       0.0287
     87 H34       -10.2835   -7.6940   15.1952 H           1 SU3       0.0267
     88 H35       -10.4468   -5.9954   15.6149 H           1 SU3       0.0267
     89 H36       -10.0864   -5.2923   13.3137 H           1 SU3       0.0271
     90 H37       -10.0434   -6.9478   12.7406 H           1 SU3       0.0271
     91 H38        -7.8238   -4.4934   12.6017 H           1 SU3       0.0617
     92 H39        -6.4622   -5.5992   12.6121 H           1 SU3       0.0617
     93 H40        -7.9913   -6.2303   15.9185 H           1 SU3       0.0236
     94 H41        -8.2288   -4.6551   15.1525 H           1 SU3       0.0236
     95 H42        -6.6647   -5.4643   15.0590 H           1 SU3       0.0236
     96 H43        -7.9819   -8.3264   12.8290 H           1 SU3       0.0236
     97 H44        -8.0328   -8.3488   14.5955 H           1 SU3       0.0236
     98 H45        -6.5735   -7.8113   13.7675 H           1 SU3       0.0236
     99 H46        -8.2720   -6.9530    5.3546 H           1 SU3       0.0237
    100 H47        -7.1800   -7.2540    6.7166 H           1 SU3       0.0237
    101 H48        -6.6685   -6.2274    5.3643 H           1 SU3       0.0237
    102 H49        -8.9994   -3.3296    6.1521 H           1 SU3       0.0237
    103 H50        -9.5318   -4.7062    5.1825 H           1 SU3       0.0237
    104 H51        -7.9296   -4.0139    4.9211 H           1 SU3       0.0237
    105 H52       -11.9306   -4.3067    6.6398 H           1 SU3       0.0553
    106 H53       -11.9029   -4.6732    8.3871 H           1 SU3       0.0553
@<TRIPOS>BOND
     1     1     3   2
     2     1     4   1
     3    21     1  am
     4     4     2   1
     5     2     7  am
     6     2    52   1
     7     4     5   1
     8     5     6   1
     9     6    52   1
    10     6    53   1
    11     7     8   2
    12     7     9   1
    13     9    10   1
    14     9    13   1
    15    10    11  am
    16    11    12   1
    17    11    14   2
    18    12    47   1
    19    13    20   1
    20    13    50   1
    21    13    51   1
    22    15    16   2
    23    15    17  am
    24    53    15   1
    25    17    26   1
    26    17    29   1
    27    18    19   1
    28    24    18   1
    29    22    21   1
    30    22    23   1
    31    22    24   1
    32    22    25   1
    33    23    35  am
    34    23    36   2
    35    24    25   1
    36    26    27   2
    37    27    28  ar
    38    27    30  ar
    39    28    29   2
    40    28    33  ar
    41    30    31  ar
    42    31    32  ar
    43    32    33  ar
    44    33    34   1
    45    34    43   1
    46    35    37  am
    47    37    38   1
    48    37    39   2
    49    37    40   2
    50    38    41   1
    51    38    42   1
    52    41    42   1
    53    43    44   1
    54    44    45   1
    55    45    46   1
    56    46    47   1
    57    46    48   1
    58    46    49   1
    59     4    54   1
    60     5    55   1
    61     5    56   1
    62     6    57   1
    63     9    58   1
    64    10    59   1
    65    18    60   1
    66    18    61   1
    67    19    62   1
    68    19    63   1
    69    19    64   1
    70    20    65   1
    71    20    66   1
    72    20    67   1
    73    21    68   1
    74    24    69   1
    75    25    70   1
    76    25    71   1
    77    26    72   1
    78    29    73   1
    79    30    74   1
    80    31    75   1
    81    32    76   1
    82    34    77   1
    83    34    78   1
    84    35    79   1
    85    38    80   1
    86    41    81   1
    87    41    82   1
    88    42    83   1
    89    42    84   1
    90    43    85   1
    91    43    86   1
    92    44    87   1
    93    44    88   1
    94    45    89   1
    95    45    90   1
    96    47    91   1
    97    47    92   1
    98    48    93   1
    99    48    94   1
   100    48    95   1
   101    49    96   1
   102    49    97   1
   103    49    98   1
   104    50    99   1
   105    50   100   1
   106    50   101   1
   107    51   102   1
   108    51   103   1
   109    51   104   1
   110    52   105   1
   111    52   106   1
@<TRIPOS>SUBSTRUCTURE
     1  SU3      1

