@<TRIPOS>MOLECULE
3su3_ligand_046
   106   111
SMALL
GAST_HUCK
****
This file was generated by PARSER (from files_GN.cpp)

@<TRIPOS>ATOM
      1 C         -15.1657  -19.4011   21.9802 C.2         1 SU3       0.2013
      2 N         -15.9174  -19.4770   19.6758 N.am        1 SU3      -0.2469
      3 O         -16.1202  -19.6360   22.7141 O.2         1 SU3      -0.3947
      4 CA        -15.3809  -18.6525   20.7413 C.3         1 SU3       0.1363
      5 CB        -16.3901  -17.4867   20.9185 C.3         1 SU3       0.0206
      6 CG        -17.0838  -17.4235   19.5499 C.3         1 SU3       0.1158
      7 CAF       -15.3248  -20.6013   19.2244 C.2         1 SU3       0.2070
      8 OAG       -14.1872  -20.8402   19.6132 O.2         1 SU3      -0.3942
      9 CAH       -15.8867  -21.5889   18.2862 C.3         1 SU3       0.1378
     10 NAI       -14.9911  -21.6613   17.1601 N.am        1 SU3      -0.2407
     11 CAJ       -15.2949  -21.4582   15.8600 C.2         1 SU3       0.3218
     12 OAK       -14.3110  -21.6970   14.9532 O.3         1 SU3      -0.2633
     13 CAL       -16.1485  -23.0331   18.8971 C.3         1 SU3       0.0025
     14 OAM       -16.5425  -21.1127   15.4630 O.2         1 SU3      -0.3774
     15 CAO       -16.1019  -15.3340   18.5507 C.2         1 SU3       0.4317
     16 OAP       -16.7454  -14.5199   19.4246 O.2         1 SU3      -0.3166
     17 NAQ       -15.2620  -14.8262   17.6150 N.am        1 SU3      -0.2080
     18 CAR       -14.4679  -22.7691   24.9010 C.3         1 SU3      -0.0516
     19 CAS       -14.2565  -24.2973   24.8629 C.3         1 SU3      -0.0651
     20 CAT       -17.1592  -22.9471   20.0933 C.3         1 SU3      -0.0558
     21 NAV       -13.9759  -19.9333   22.2292 N.am        1 SU3      -0.2737
     22 CAX       -13.6284  -20.6597   23.4109 C.3         1 SU3       0.1374
     23 CAY       -13.4267  -19.8484   24.5936 C.2         1 SU3       0.2444
     24 CAZ       -14.1537  -22.1162   23.5305 C.3         1 SU3      -0.0066
     25 CBA       -12.6849  -21.8625   23.1796 C.3         1 SU3      -0.0152
     26 CBB       -14.9942  -13.5188   17.4125 C.2         1 SU3       0.0383
     27 CBC       -14.0788  -13.4070   16.3727 C.ar        1 SU3      -0.0374
     28 CBD       -13.7722  -14.6979   15.9446 C.ar        1 SU3      -0.0293
     29 CBE       -14.5359  -15.5542   16.7337 C.2         1 SU3       0.0366
     30 CBF       -13.4979  -12.2789   15.7745 C.ar        1 SU3      -0.0689
     31 CBG       -12.5854  -12.4772   14.7160 C.ar        1 SU3      -0.0688
     32 CBH       -12.2650  -13.7830   14.2868 C.ar        1 SU3      -0.0606
     33 CBI       -12.8466  -14.9239   14.8956 C.ar        1 SU3      -0.0432
     34 CBJ       -12.4748  -16.2908   14.4368 C.3         1 SU3      -0.0194
     35 NBK       -14.4809  -19.2249   25.0906 N.am        1 SU3      -0.1552
     36 OBL       -12.2830  -19.6148   24.9657 O.2         1 SU3      -0.3404
     37 SBM       -14.4321  -17.9476   26.1897 S.o2        1 SU3       0.0645
     38 CBN       -15.5608  -18.3173   27.5487 C.3         1 SU3       0.1004
     39 OBO       -12.9891  -17.7864   26.8407 O.2         1 SU3      -0.1503
     40 OBP       -14.8300  -16.6254   25.4005 O.2         1 SU3      -0.1503
     41 CBQ       -16.2641  -17.1503   28.2603 C.3         1 SU3      -0.0268
     42 CBR       -17.0578  -18.0591   27.3085 C.3         1 SU3      -0.0268
     43 CBS       -13.1358  -16.6566   13.0803 C.3         1 SU3      -0.0433
     44 CBT       -12.8174  -18.0944   12.5831 C.3         1 SU3      -0.0507
     45 CBU       -13.6425  -19.2226   13.2767 C.3         1 SU3      -0.0453
     46 CBV       -13.3286  -20.7076   12.8553 C.3         1 SU3      -0.0072
     47 CBW       -14.3830  -21.6630   13.5178 C.3         1 SU3       0.0824
     48 CBX       -13.4383  -20.8896   11.3046 C.3         1 SU3      -0.0574
     49 CBY       -11.8957  -21.1311   13.3178 C.3         1 SU3      -0.0574
     50 CBZ       -16.8056  -23.9453   17.8022 C.3         1 SU3      -0.0558
     51 CCA       -14.8487  -23.7430   19.4055 C.3         1 SU3      -0.0558
     52 CD1       -17.1093  -18.9039   19.1186 C.3         1 SU3       0.0677
     53 OD2       -16.2919  -16.6778   18.6107 O.3         1 SU3      -0.2338
     54 H1        -14.4352  -18.2236   20.3871 H           1 SU3       0.0803
     55 H2        -15.8902  -16.5514   21.1798 H           1 SU3       0.0342
     56 H3        -17.1466  -17.6966   21.6793 H           1 SU3       0.0342
     57 H4        -18.0981  -17.0101   19.6115 H           1 SU3       0.0673
     58 H5        -16.8600  -21.2313   17.9477 H           1 SU3       0.0805
     59 H6        -14.0783  -21.9317   17.3503 H           1 SU3       0.1899
     60 H7        -13.8405  -22.3492   25.6943 H           1 SU3       0.0265
     61 H8        -15.5108  -22.5574   25.1492 H           1 SU3       0.0265
     62 H9        -14.5428  -24.7330   25.8223 H           1 SU3       0.0230
     63 H10       -13.2068  -24.5292   24.6739 H           1 SU3       0.0230
     64 H11       -14.8673  -24.7492   24.0788 H           1 SU3       0.0230
     65 H12       -17.3955  -23.9447   20.4734 H           1 SU3       0.0237
     66 H13       -18.0926  -22.4751   19.7803 H           1 SU3       0.0237
     67 H14       -16.7424  -22.3663   20.9186 H           1 SU3       0.0237
     68 H15       -13.2880  -19.8311   21.5496 H           1 SU3       0.1839
     69 H16       -14.7426  -22.4663   22.6791 H           1 SU3       0.0312
     70 H17       -11.9665  -22.0946   23.9653 H           1 SU3       0.0279
     71 H18       -12.4138  -22.0767   22.1430 H           1 SU3       0.0279
     72 H19       -15.3953  -12.7325   17.9263 H           1 SU3       0.0373
     73 H20       -14.5419  -16.5734   16.6583 H           1 SU3       0.0361
     74 H21       -13.7301  -11.3364   16.0935 H           1 SU3       0.0557
     75 H22       -12.1542  -11.6701   14.2630 H           1 SU3       0.0599
     76 H23       -11.5943  -13.8971   13.5224 H           1 SU3       0.0557
     77 H24       -12.7559  -17.0332   15.1841 H           1 SU3       0.0426
     78 H25       -11.3867  -16.3459   14.3390 H           1 SU3       0.0426
     79 H26       -15.3492  -19.4317   24.7065 H           1 SU3       0.2148
     80 H27       -15.3481  -19.1869   28.1751 H           1 SU3       0.0559
     81 H28       -16.0406  -16.1467   27.8902 H           1 SU3       0.0285
     82 H29       -16.4607  -17.2965   29.3235 H           1 SU3       0.0285
     83 H30       -17.7353  -18.7710   27.7830 H           1 SU3       0.0285
     84 H31       -17.3337  -17.6171   26.3483 H           1 SU3       0.0285
     85 H32       -12.7750  -15.9531   12.3244 H           1 SU3       0.0287
     86 H33       -14.2197  -16.5315   13.1523 H           1 SU3       0.0287
     87 H34       -11.7485  -18.2803   12.7036 H           1 SU3       0.0267
     88 H35       -13.0366  -18.1172   11.5132 H           1 SU3       0.0267
     89 H36       -14.6980  -19.0190   13.0740 H           1 SU3       0.0271
     90 H37       -13.5069  -19.1368   14.3572 H           1 SU3       0.0271
     91 H38       -15.3904  -21.3877   13.1920 H           1 SU3       0.0617
     92 H39       -14.2136  -22.6899   13.1828 H           1 SU3       0.0617
     93 H40       -12.6603  -20.3305   10.7845 H           1 SU3       0.0236
     94 H41       -14.4092  -20.5423   10.9447 H           1 SU3       0.0236
     95 H42       -13.3269  -21.9392   11.0238 H           1 SU3       0.0236
     96 H43       -11.7633  -20.9586   14.3885 H           1 SU3       0.0236
     97 H44       -11.1271  -20.5672   12.7881 H           1 SU3       0.0236
     98 H45       -11.7217  -22.1917   13.1212 H           1 SU3       0.0236
     99 H46       -16.1177  -24.1135   16.9701 H           1 SU3       0.0237
    100 H47       -17.7144  -23.4850   17.4071 H           1 SU3       0.0237
    101 H48       -17.0755  -24.9215   18.2136 H           1 SU3       0.0237
    102 H49       -14.4377  -23.2429   20.2855 H           1 SU3       0.0237
    103 H50       -14.0796  -23.7571   18.6297 H           1 SU3       0.0237
    104 H51       -15.0559  -24.7793   19.6879 H           1 SU3       0.0237
    105 H52       -17.9890  -19.4132   19.5252 H           1 SU3       0.0553
    106 H53       -17.1303  -18.9526   18.0247 H           1 SU3       0.0553
@<TRIPOS>BOND
     1     1     3   2
     2     1     4   1
     3    21     1  am
     4     4     2   1
     5     2     7  am
     6     2    52   1
     7     4     5   1
     8     5     6   1
     9     6    52   1
    10     6    53   1
    11     7     8   2
    12     7     9   1
    13     9    10   1
    14     9    13   1
    15    10    11  am
    16    11    12   1
    17    11    14   2
    18    12    47   1
    19    13    20   1
    20    13    50   1
    21    13    51   1
    22    15    16   2
    23    15    17  am
    24    53    15   1
    25    17    26   1
    26    17    29   1
    27    18    19   1
    28    24    18   1
    29    22    21   1
    30    22    23   1
    31    22    24   1
    32    22    25   1
    33    23    35  am
    34    23    36   2
    35    24    25   1
    36    26    27   2
    37    27    28  ar
    38    27    30  ar
    39    28    29   2
    40    28    33  ar
    41    30    31  ar
    42    31    32  ar
    43    32    33  ar
    44    33    34   1
    45    34    43   1
    46    35    37  am
    47    37    38   1
    48    37    39   2
    49    37    40   2
    50    38    41   1
    51    38    42   1
    52    41    42   1
    53    43    44   1
    54    44    45   1
    55    45    46   1
    56    46    47   1
    57    46    48   1
    58    46    49   1
    59     4    54   1
    60     5    55   1
    61     5    56   1
    62     6    57   1
    63     9    58   1
    64    10    59   1
    65    18    60   1
    66    18    61   1
    67    19    62   1
    68    19    63   1
    69    19    64   1
    70    20    65   1
    71    20    66   1
    72    20    67   1
    73    21    68   1
    74    24    69   1
    75    25    70   1
    76    25    71   1
    77    26    72   1
    78    29    73   1
    79    30    74   1
    80    31    75   1
    81    32    76   1
    82    34    77   1
    83    34    78   1
    84    35    79   1
    85    38    80   1
    86    41    81   1
    87    41    82   1
    88    42    83   1
    89    42    84   1
    90    43    85   1
    91    43    86   1
    92    44    87   1
    93    44    88   1
    94    45    89   1
    95    45    90   1
    96    47    91   1
    97    47    92   1
    98    48    93   1
    99    48    94   1
   100    48    95   1
   101    49    96   1
   102    49    97   1
   103    49    98   1
   104    50    99   1
   105    50   100   1
   106    50   101   1
   107    51   102   1
   108    51   103   1
   109    51   104   1
   110    52   105   1
   111    52   106   1
@<TRIPOS>SUBSTRUCTURE
     1  SU3      1

