@<TRIPOS>MOLECULE
3su3_ligand_036
   106   111
SMALL
GAST_HUCK
****
This file was generated by PARSER (from files_GN.cpp)

@<TRIPOS>ATOM
      1 C         -19.6425  -15.9274   21.0670 C.2         1 SU3       0.2013
      2 N         -18.8151  -15.9505   18.7518 N.am        1 SU3      -0.2469
      3 O         -19.8618  -15.1478   21.9867 O.2         1 SU3      -0.3947
      4 CA        -19.7851  -15.4431   19.6975 C.3         1 SU3       0.1363
      5 CB        -21.1709  -15.8225   19.1173 C.3         1 SU3       0.0206
      6 CG        -20.8907  -15.9176   17.6122 C.3         1 SU3       0.1158
      7 CAF       -17.4805  -15.8754   18.9311 C.2         1 SU3       0.2070
      8 OAG       -17.0628  -15.2415   19.8946 O.2         1 SU3      -0.3942
      9 CAH       -16.4516  -16.4923   18.0737 C.3         1 SU3       0.1378
     10 NAI       -15.5806  -15.4406   17.6201 N.am        1 SU3      -0.2407
     11 CAJ       -15.2633  -15.1436   16.3404 C.2         1 SU3       0.3218
     12 OAK       -14.3099  -14.1955   16.1658 O.3         1 SU3      -0.2633
     13 CAL       -15.6380  -17.6824   18.7384 C.3         1 SU3       0.0025
     14 OAM       -15.7981  -15.8104   15.2867 O.2         1 SU3      -0.3774
     15 CAO       -21.9059  -13.8040   16.6535 C.2         1 SU3       0.4317
     16 OAP       -23.1793  -14.2211   16.8413 O.2         1 SU3      -0.3166
     17 NAQ       -21.6385  -12.5858   16.1179 N.am        1 SU3      -0.2080
     18 CAR       -19.8985  -17.4365   25.1767 C.3         1 SU3      -0.0516
     19 CAS       -21.1685  -17.4565   26.0515 C.3         1 SU3      -0.0651
     20 CAT       -14.6527  -18.2921   17.6849 C.3         1 SU3      -0.0558
     21 NAV       -19.2954  -17.1871   21.3137 N.am        1 SU3      -0.2737
     22 CAX       -19.0937  -17.7552   22.6165 C.3         1 SU3       0.1374
     23 CAY       -17.7187  -17.9103   23.0531 C.2         1 SU3       0.2444
     24 CAZ       -20.2251  -17.5502   23.6613 C.3         1 SU3      -0.0066
     25 CBA       -20.0655  -18.9055   22.9578 C.3         1 SU3      -0.0152
     26 CBB       -22.5447  -11.6758   15.6997 C.2         1 SU3       0.0383
     27 CBC       -21.8735  -10.5528   15.2376 C.ar        1 SU3      -0.0374
     28 CBD       -20.5055  -10.7887   15.3854 C.ar        1 SU3      -0.0293
     29 CBE       -20.4012  -12.0692   15.9243 C.2         1 SU3       0.0366
     30 CBF       -22.3487   -9.3405   14.7052 C.ar        1 SU3      -0.0689
     31 CBG       -21.4108   -8.3620   14.3193 C.ar        1 SU3      -0.0688
     32 CBH       -20.0286   -8.5969   14.4737 C.ar        1 SU3      -0.0606
     33 CBI       -19.5423   -9.8134   15.0199 C.ar        1 SU3      -0.0432
     34 CBJ       -18.0793  -10.0179   15.2108 C.3         1 SU3      -0.0194
     35 NBK       -17.0494  -19.0305   22.8179 N.am        1 SU3      -0.1552
     36 OBL       -17.2061  -16.9639   23.6312 O.2         1 SU3      -0.3404
     37 SBM       -15.5193  -19.4004   23.4238 S.o2        1 SU3       0.0645
     38 CBN       -14.6030  -20.4879   22.3026 C.3         1 SU3       0.1004
     39 OBO       -14.6332  -18.0828   23.5064 O.2         1 SU3      -0.1503
     40 OBP       -15.6343  -20.0172   24.8841 O.2         1 SU3      -0.1503
     41 CBQ       -13.2117  -20.9164   22.7954 C.3         1 SU3      -0.0268
     42 CBR       -14.3343  -21.9556   22.6685 C.3         1 SU3      -0.0268
     43 CBS       -17.3298  -10.2397   13.8696 C.3         1 SU3      -0.0433
     44 CBT       -15.8020  -10.4778   14.0236 C.3         1 SU3      -0.0507
     45 CBU       -15.4089  -11.9216   14.4643 C.3         1 SU3      -0.0453
     46 CBV       -13.8766  -12.2188   14.6907 C.3         1 SU3      -0.0072
     47 CBW       -13.6881  -13.7538   14.9508 C.3         1 SU3       0.0824
     48 CBX       -13.0287  -11.8460   13.4306 C.3         1 SU3      -0.0574
     49 CBY       -13.3332  -11.4241   15.9228 C.3         1 SU3      -0.0574
     50 CBZ       -14.7972  -17.2328   19.9812 C.3         1 SU3      -0.0558
     51 CCA       -16.6272  -18.8158   19.1725 C.3         1 SU3      -0.0558
     52 CD1       -19.4573  -16.4819   17.5844 C.3         1 SU3       0.0677
     53 OD2       -20.8763  -14.6194   16.9987 O.3         1 SU3      -0.2338
     54 H1        -19.7032  -14.3494   19.6787 H           1 SU3       0.0803
     55 H2        -21.9286  -15.0720   19.3521 H           1 SU3       0.0342
     56 H3        -21.5184  -16.7976   19.4757 H           1 SU3       0.0342
     57 H4        -21.5881  -16.5821   17.0938 H           1 SU3       0.0673
     58 H5        -16.9373  -16.9316   17.2025 H           1 SU3       0.0805
     59 H6        -15.1201  -14.9285   18.3058 H           1 SU3       0.1899
     60 H7        -19.2411  -18.2451   25.4993 H           1 SU3       0.0265
     61 H8        -19.3799  -16.4914   25.3371 H           1 SU3       0.0265
     62 H9        -20.8866  -17.3823   27.1051 H           1 SU3       0.0230
     63 H10       -21.7175  -18.3883   25.9042 H           1 SU3       0.0230
     64 H11       -21.8182  -16.6154   25.8049 H           1 SU3       0.0230
     65 H12       -14.1350  -19.1616   18.0932 H           1 SU3       0.0237
     66 H13       -13.8960  -17.5639   17.3931 H           1 SU3       0.0237
     67 H14       -15.1871  -18.6094   16.7885 H           1 SU3       0.0237
     68 H15       -19.1315  -17.7649   20.5510 H           1 SU3       0.1839
     69 H16       -21.0740  -16.9608   23.2999 H           1 SU3       0.0312
     70 H17       -19.6648  -19.7205   23.5685 H           1 SU3       0.0279
     71 H18       -20.8206  -19.1406   22.1996 H           1 SU3       0.0279
     72 H19       -23.5608  -11.7810   15.7172 H           1 SU3       0.0373
     73 H20       -19.5198  -12.5420   16.1450 H           1 SU3       0.0361
     74 H21       -23.3528   -9.1729   14.6032 H           1 SU3       0.0557
     75 H22       -21.7390   -7.4725   13.9332 H           1 SU3       0.0599
     76 H23       -19.3740   -7.8623   14.1988 H           1 SU3       0.0557
     77 H24       -17.8951  -10.8691   15.8652 H           1 SU3       0.0426
     78 H25       -17.6683   -9.1407   15.7201 H           1 SU3       0.0426
     79 H26       -17.5088  -19.7373   22.3343 H           1 SU3       0.2148
     80 H27       -14.6258  -20.2609   21.2412 H           1 SU3       0.0559
     81 H28       -12.9348  -20.6675   23.8222 H           1 SU3       0.0285
     82 H29       -12.4329  -20.9753   22.0322 H           1 SU3       0.0285
     83 H30       -14.2113  -22.6529   21.8351 H           1 SU3       0.0285
     84 H31       -14.7418  -22.3172   23.6132 H           1 SU3       0.0285
     85 H32       -17.4689   -9.3521   13.2475 H           1 SU3       0.0287
     86 H33       -17.7767  -11.0847   13.3376 H           1 SU3       0.0287
     87 H34       -15.4004   -9.7491   14.7297 H           1 SU3       0.0267
     88 H35       -15.3463  -10.2814   13.0514 H           1 SU3       0.0267
     89 H36       -15.7882  -12.6074   13.6993 H           1 SU3       0.0271
     90 H37       -15.9441  -12.1549   15.3887 H           1 SU3       0.0271
     91 H38       -14.0545  -14.3275   14.0935 H           1 SU3       0.0617
     92 H39       -12.6243  -13.9833   15.0564 H           1 SU3       0.0617
     93 H40       -13.0371  -10.7713   13.2504 H           1 SU3       0.0236
     94 H41       -13.4199  -12.3465   12.5425 H           1 SU3       0.0236
     95 H42       -11.9865  -12.1460   13.5597 H           1 SU3       0.0236
     96 H43       -13.9443  -11.6066   16.8088 H           1 SU3       0.0236
     97 H44       -13.3299  -10.3514   15.7302 H           1 SU3       0.0236
     98 H45       -12.3102  -11.7234   16.1548 H           1 SU3       0.0236
     99 H46       -15.4383  -16.9828   20.8266 H           1 SU3       0.0237
    100 H47       -14.1871  -16.3590   19.7453 H           1 SU3       0.0237
    101 H48       -14.1234  -18.0269   20.3060 H           1 SU3       0.0237
    102 H49       -17.2661  -19.1220   18.3424 H           1 SU3       0.0237
    103 H50       -17.2699  -18.4784   19.9832 H           1 SU3       0.0237
    104 H51       -16.0902  -19.6976   19.5214 H           1 SU3       0.0237
    105 H52       -19.4620  -17.5735   17.6379 H           1 SU3       0.0553
    106 H53       -18.9794  -16.1660   16.6520 H           1 SU3       0.0553
@<TRIPOS>BOND
     1     1     3   2
     2     1     4   1
     3    21     1  am
     4     4     2   1
     5     2     7  am
     6     2    52   1
     7     4     5   1
     8     5     6   1
     9     6    52   1
    10     6    53   1
    11     7     8   2
    12     7     9   1
    13     9    10   1
    14     9    13   1
    15    10    11  am
    16    11    12   1
    17    11    14   2
    18    12    47   1
    19    13    20   1
    20    13    50   1
    21    13    51   1
    22    15    16   2
    23    15    17  am
    24    53    15   1
    25    17    26   1
    26    17    29   1
    27    18    19   1
    28    24    18   1
    29    22    21   1
    30    22    23   1
    31    22    24   1
    32    22    25   1
    33    23    35  am
    34    23    36   2
    35    24    25   1
    36    26    27   2
    37    27    28  ar
    38    27    30  ar
    39    28    29   2
    40    28    33  ar
    41    30    31  ar
    42    31    32  ar
    43    32    33  ar
    44    33    34   1
    45    34    43   1
    46    35    37  am
    47    37    38   1
    48    37    39   2
    49    37    40   2
    50    38    41   1
    51    38    42   1
    52    41    42   1
    53    43    44   1
    54    44    45   1
    55    45    46   1
    56    46    47   1
    57    46    48   1
    58    46    49   1
    59     4    54   1
    60     5    55   1
    61     5    56   1
    62     6    57   1
    63     9    58   1
    64    10    59   1
    65    18    60   1
    66    18    61   1
    67    19    62   1
    68    19    63   1
    69    19    64   1
    70    20    65   1
    71    20    66   1
    72    20    67   1
    73    21    68   1
    74    24    69   1
    75    25    70   1
    76    25    71   1
    77    26    72   1
    78    29    73   1
    79    30    74   1
    80    31    75   1
    81    32    76   1
    82    34    77   1
    83    34    78   1
    84    35    79   1
    85    38    80   1
    86    41    81   1
    87    41    82   1
    88    42    83   1
    89    42    84   1
    90    43    85   1
    91    43    86   1
    92    44    87   1
    93    44    88   1
    94    45    89   1
    95    45    90   1
    96    47    91   1
    97    47    92   1
    98    48    93   1
    99    48    94   1
   100    48    95   1
   101    49    96   1
   102    49    97   1
   103    49    98   1
   104    50    99   1
   105    50   100   1
   106    50   101   1
   107    51   102   1
   108    51   103   1
   109    51   104   1
   110    52   105   1
   111    52   106   1
@<TRIPOS>SUBSTRUCTURE
     1  SU3      1

