@<TRIPOS>MOLECULE
3su3_ligand_081
   106   111
SMALL
GAST_HUCK
****
This file was generated by PARSER (from files_GN.cpp)

@<TRIPOS>ATOM
      1 C         -11.7466   -8.0231   11.7858 C.2         1 SU3       0.2013
      2 N         -11.4849   -8.9432    9.5417 N.am        1 SU3      -0.2469
      3 O         -11.0200   -7.7523   12.7339 O.2         1 SU3      -0.3947
      4 CA        -11.2200   -7.8343   10.4319 C.3         1 SU3       0.1363
      5 CB        -11.8437   -6.5938    9.7461 C.3         1 SU3       0.0206
      6 CG        -11.9418   -7.0032    8.2678 C.3         1 SU3       0.1158
      7 CAF       -11.0426  -10.1952    9.7619 C.2         1 SU3       0.2070
      8 OAG       -10.2148  -10.3488   10.6527 O.2         1 SU3      -0.3942
      9 CAH       -11.4067  -11.3988    8.9898 C.3         1 SU3       0.1378
     10 NAI       -10.2355  -11.8402    8.2865 N.am        1 SU3      -0.2407
     11 CAJ       -10.1655  -12.1002    6.9603 C.2         1 SU3       0.3218
     12 OAK        -9.0948  -12.8046    6.5166 O.3         1 SU3      -0.2633
     13 CAL       -12.0765  -12.5899    9.8091 C.3         1 SU3       0.0025
     14 OAM       -11.1893  -11.8137    6.1189 O.2         1 SU3      -0.3774
     15 CAO       -10.2056   -5.5600    7.1395 C.2         1 SU3       0.4317
     16 OAP       -10.8871   -4.4180    7.3979 O.2         1 SU3      -0.3166
     17 NAQ        -9.0312   -5.5268    6.4593 N.am        1 SU3      -0.2080
     18 CAR       -15.7280   -9.9132   14.3618 C.3         1 SU3      -0.0516
     19 CAS       -15.9893  -11.3522   14.8604 C.3         1 SU3      -0.0651
     20 CAT       -13.5188  -12.1746   10.2277 C.3         1 SU3      -0.0558
     21 NAV       -12.9961   -8.4291   11.9734 N.am        1 SU3      -0.2737
     22 CAX       -13.6682   -8.5242   13.2380 C.3         1 SU3       0.1374
     23 CAY       -14.1454   -7.2791   13.8045 C.2         1 SU3       0.2444
     24 CAZ       -14.4391   -9.8447   13.5059 C.3         1 SU3      -0.0066
     25 CBA       -13.1161   -9.5719   14.2355 C.3         1 SU3      -0.0152
     26 CBB        -8.4139   -4.4211    5.9788 C.2         1 SU3       0.0383
     27 CBC        -7.2472   -4.8063    5.3268 C.ar        1 SU3      -0.0374
     28 CBD        -7.1526   -6.1933    5.4260 C.ar        1 SU3      -0.0293
     29 CBE        -8.2809   -6.6036    6.1344 C.2         1 SU3       0.0366
     30 CBF        -6.2725   -4.0544    4.6480 C.ar        1 SU3      -0.0689
     31 CBG        -5.1921   -4.7350    4.0556 C.ar        1 SU3      -0.0688
     32 CBH        -5.0934   -6.1399    4.1509 C.ar        1 SU3      -0.0606
     33 CBI        -6.0695   -6.8983    4.8478 C.ar        1 SU3      -0.0432
     34 CBJ        -5.9509   -8.3793    4.9243 C.3         1 SU3      -0.0194
     35 NBK       -13.2812   -6.4843   14.4131 N.am        1 SU3      -0.1552
     36 OBL       -15.3034   -6.9529   13.5845 O.2         1 SU3      -0.3404
     37 SBM       -13.6174   -4.9728   15.0869 S.o2        1 SU3       0.0645
     38 CBN       -12.9255   -4.7833   16.7452 C.3         1 SU3       0.1004
     39 OBO       -13.0765   -3.8197   14.1351 O.2         1 SU3      -0.1503
     40 OBP       -15.1868   -4.7493   15.2403 O.2         1 SU3      -0.1503
     41 CBQ       -12.1097   -5.9377   17.3518 C.3         1 SU3      -0.0268
     42 CBR       -11.3956   -4.6774   16.8500 C.3         1 SU3      -0.0268
     43 CBS        -6.4279   -9.0589    3.6118 C.3         1 SU3      -0.0433
     44 CBT        -6.3737  -10.6123    3.6445 C.3         1 SU3      -0.0507
     45 CBU        -7.5529  -11.2804    4.4130 C.3         1 SU3      -0.0453
     46 CBV        -7.5037  -12.8465    4.5863 C.3         1 SU3      -0.0072
     47 CBW        -8.8608  -13.3316    5.2016 C.3         1 SU3       0.0824
     48 CBX        -7.3310  -13.5672    3.2108 C.3         1 SU3      -0.0574
     49 CBY        -6.3388  -13.2694    5.5416 C.3         1 SU3      -0.0574
     50 CBZ       -12.2040  -13.8681    8.9087 C.3         1 SU3      -0.0558
     51 CCA       -11.2688  -13.0058   11.0858 C.3         1 SU3      -0.0558
     52 CD1       -12.1765   -8.5223    8.3576 C.3         1 SU3       0.0677
     53 OD2       -10.7228   -6.7520    7.5469 O.3         1 SU3      -0.2338
     54 H1        -10.1336   -7.6839   10.4657 H           1 SU3       0.0803
     55 H2        -11.2266   -5.7030    9.8936 H           1 SU3       0.0342
     56 H3        -12.8509   -6.3841   10.1198 H           1 SU3       0.0342
     57 H4        -12.7803   -6.5140    7.7639 H           1 SU3       0.0673
     58 H5        -12.1629  -11.1173    8.2553 H           1 SU3       0.0805
     59 H6         -9.4772  -12.1167    8.8256 H           1 SU3       0.1899
     60 H7        -15.6767   -9.2533   15.2348 H           1 SU3       0.0265
     61 H8        -16.5703   -9.6007   13.7378 H           1 SU3       0.0265
     62 H9        -16.9239  -11.3812   15.4232 H           1 SU3       0.0230
     63 H10       -15.1775  -11.6800   15.5144 H           1 SU3       0.0230
     64 H11       -16.0676  -12.0506   14.0221 H           1 SU3       0.0230
     65 H12       -13.9806  -12.9298   10.8726 H           1 SU3       0.0237
     66 H13       -14.1624  -12.0340    9.3517 H           1 SU3       0.0237
     67 H14       -13.4698  -11.2331   10.7646 H           1 SU3       0.0237
     68 H15       -13.5242   -8.6248   11.1828 H           1 SU3       0.1839
     69 H16       -14.3678  -10.5849   12.7091 H           1 SU3       0.0312
     70 H17       -13.2040   -9.3418   15.3032 H           1 SU3       0.0279
     71 H18       -12.2814  -10.1900   13.8994 H           1 SU3       0.0279
     72 H19        -8.7442   -3.4564    6.0603 H           1 SU3       0.0373
     73 H20        -8.5094   -7.5743    6.3592 H           1 SU3       0.0361
     74 H21        -6.3497   -3.0368    4.5796 H           1 SU3       0.0557
     75 H22        -4.4734   -4.2084    3.5526 H           1 SU3       0.0599
     76 H23        -4.2984   -6.6087    3.7100 H           1 SU3       0.0557
     77 H24        -6.5283   -8.7598    5.7676 H           1 SU3       0.0426
     78 H25        -4.9080   -8.6472    5.1182 H           1 SU3       0.0426
     79 H26       -12.3601   -6.7893   14.4710 H           1 SU3       0.2148
     80 H27       -13.4515   -4.1325   17.4460 H           1 SU3       0.0559
     81 H28       -11.9550   -6.8279   16.7395 H           1 SU3       0.0285
     82 H29       -12.1596   -6.0453   18.4357 H           1 SU3       0.0285
     83 H30       -11.0047   -4.0327   17.6396 H           1 SU3       0.0285
     84 H31       -10.8137   -4.8100   15.9350 H           1 SU3       0.0285
     85 H32        -5.7842   -8.7170    2.7963 H           1 SU3       0.0287
     86 H33        -7.4475   -8.7385    3.3798 H           1 SU3       0.0287
     87 H34        -5.4182  -10.9207    4.0710 H           1 SU3       0.0267
     88 H35        -6.4000  -10.9590    2.6092 H           1 SU3       0.0267
     89 H36        -8.4732  -11.0166    3.8825 H           1 SU3       0.0271
     90 H37        -7.6226  -10.8280    5.4045 H           1 SU3       0.0271
     91 H38        -9.6839  -13.0811    4.5253 H           1 SU3       0.0617
     92 H39        -8.8556  -14.4208    5.3001 H           1 SU3       0.0617
     93 H40        -6.3539  -13.3568    2.7728 H           1 SU3       0.0236
     94 H41        -8.1011  -13.2411    2.5071 H           1 SU3       0.0236
     95 H42        -7.4124  -14.6516    3.3248 H           1 SU3       0.0236
     96 H43        -6.4061  -12.7429    6.4961 H           1 SU3       0.0236
     97 H44        -5.3661  -13.0476    5.1008 H           1 SU3       0.0236
     98 H45        -6.3743  -14.3427    5.7438 H           1 SU3       0.0236
     99 H46       -11.2162  -14.2670    8.6576 H           1 SU3       0.0237
    100 H47       -12.7268  -13.6278    7.9794 H           1 SU3       0.0237
    101 H48       -12.7591  -14.6589    9.4226 H           1 SU3       0.0237
    102 H49       -11.3096  -12.2327   11.8561 H           1 SU3       0.0237
    103 H50       -10.2232  -13.1894   10.8307 H           1 SU3       0.0237
    104 H51       -11.6735  -13.9140   11.5393 H           1 SU3       0.0237
    105 H52       -13.2417   -8.7508    8.4614 H           1 SU3       0.0553
    106 H53       -11.7907   -8.9972    7.4502 H           1 SU3       0.0553
@<TRIPOS>BOND
     1     1     3   2
     2     1     4   1
     3    21     1  am
     4     4     2   1
     5     2     7  am
     6     2    52   1
     7     4     5   1
     8     5     6   1
     9     6    52   1
    10     6    53   1
    11     7     8   2
    12     7     9   1
    13     9    10   1
    14     9    13   1
    15    10    11  am
    16    11    12   1
    17    11    14   2
    18    12    47   1
    19    13    20   1
    20    13    50   1
    21    13    51   1
    22    15    16   2
    23    15    17  am
    24    53    15   1
    25    17    26   1
    26    17    29   1
    27    18    19   1
    28    24    18   1
    29    22    21   1
    30    22    23   1
    31    22    24   1
    32    22    25   1
    33    23    35  am
    34    23    36   2
    35    24    25   1
    36    26    27   2
    37    27    28  ar
    38    27    30  ar
    39    28    29   2
    40    28    33  ar
    41    30    31  ar
    42    31    32  ar
    43    32    33  ar
    44    33    34   1
    45    34    43   1
    46    35    37  am
    47    37    38   1
    48    37    39   2
    49    37    40   2
    50    38    41   1
    51    38    42   1
    52    41    42   1
    53    43    44   1
    54    44    45   1
    55    45    46   1
    56    46    47   1
    57    46    48   1
    58    46    49   1
    59     4    54   1
    60     5    55   1
    61     5    56   1
    62     6    57   1
    63     9    58   1
    64    10    59   1
    65    18    60   1
    66    18    61   1
    67    19    62   1
    68    19    63   1
    69    19    64   1
    70    20    65   1
    71    20    66   1
    72    20    67   1
    73    21    68   1
    74    24    69   1
    75    25    70   1
    76    25    71   1
    77    26    72   1
    78    29    73   1
    79    30    74   1
    80    31    75   1
    81    32    76   1
    82    34    77   1
    83    34    78   1
    84    35    79   1
    85    38    80   1
    86    41    81   1
    87    41    82   1
    88    42    83   1
    89    42    84   1
    90    43    85   1
    91    43    86   1
    92    44    87   1
    93    44    88   1
    94    45    89   1
    95    45    90   1
    96    47    91   1
    97    47    92   1
    98    48    93   1
    99    48    94   1
   100    48    95   1
   101    49    96   1
   102    49    97   1
   103    49    98   1
   104    50    99   1
   105    50   100   1
   106    50   101   1
   107    51   102   1
   108    51   103   1
   109    51   104   1
   110    52   105   1
   111    52   106   1
@<TRIPOS>SUBSTRUCTURE
     1  SU3      1

