@<TRIPOS>MOLECULE
3su3_ligand_015
   106   111
SMALL
GAST_HUCK
****
This file was generated by PARSER (from files_GN.cpp)

@<TRIPOS>ATOM
      1 C         -13.2415   -8.0595   11.9297 C.2         1 SU3       0.2013
      2 N         -14.5177  -10.1095   12.1915 N.am        1 SU3      -0.2469
      3 O         -13.6208   -7.5414   10.8837 O.2         1 SU3      -0.3947
      4 CA        -13.2038   -9.5209   12.0451 C.3         1 SU3       0.1363
      5 CB        -12.5702  -10.2292   10.8142 C.3         1 SU3       0.0206
      6 CG        -13.4124  -11.5047   10.6361 C.3         1 SU3       0.1158
      7 CAF       -15.3409   -9.8416   13.2187 C.2         1 SU3       0.2070
      8 OAG       -14.8871   -9.2070   14.1686 O.2         1 SU3      -0.3942
      9 CAH       -16.7553  -10.2252   13.3303 C.3         1 SU3       0.1378
     10 NAI       -16.8904  -11.0434   14.5092 N.am        1 SU3      -0.2407
     11 CAJ       -17.3613  -12.3131   14.5750 C.2         1 SU3       0.3218
     12 OAK       -17.5270  -12.8563   15.8134 O.3         1 SU3      -0.2633
     13 CAL       -17.7862   -9.0215   13.3070 C.3         1 SU3       0.0025
     14 OAM       -17.7440  -12.9879   13.4639 O.2         1 SU3      -0.3774
     15 CAO       -11.8111  -13.3614   11.1776 C.2         1 SU3       0.4317
     16 OAP       -11.0882  -13.1398   10.0536 O.2         1 SU3      -0.3166
     17 NAQ       -11.4244  -14.3088   12.0703 N.am        1 SU3      -0.2080
     18 CAR       -14.0666   -3.6198   12.0012 C.3         1 SU3      -0.0516
     19 CAS       -14.6425   -2.4699   12.8540 C.3         1 SU3      -0.0651
     20 CAT       -17.6399   -8.0467   14.5228 C.3         1 SU3      -0.0558
     21 NAV       -12.9740   -7.3017   12.9887 N.am        1 SU3      -0.2737
     22 CAX       -12.9398   -5.8700   13.0241 C.3         1 SU3       0.1374
     23 CAY       -11.6012   -5.2725   13.0153 C.2         1 SU3       0.2444
     24 CAZ       -14.1962   -5.0461   12.6116 C.3         1 SU3      -0.0066
     25 CBA       -13.9268   -5.3369   14.0955 C.3         1 SU3      -0.0152
     26 CBB       -10.3192  -15.0798   11.9742 C.2         1 SU3       0.0383
     27 CBC       -10.2083  -15.8504   13.1241 C.ar        1 SU3      -0.0374
     28 CBD       -11.3070  -15.5559   13.9343 C.ar        1 SU3      -0.0293
     29 CBE       -12.0479  -14.5988   13.2353 C.2         1 SU3       0.0366
     30 CBF        -9.2272  -16.7653   13.5306 C.ar        1 SU3      -0.0689
     31 CBG        -9.3744  -17.3980   14.7803 C.ar        1 SU3      -0.0688
     32 CBH       -10.4894  -17.1109   15.5981 C.ar        1 SU3      -0.0606
     33 CBI       -11.4801  -16.1771   15.1895 C.ar        1 SU3      -0.0432
     34 CBJ       -12.6565  -15.8992   16.0566 C.3         1 SU3      -0.0194
     35 NBK       -10.7098   -5.7563   12.1572 N.am        1 SU3      -0.1552
     36 OBL       -11.3122   -4.3478   13.7483 O.2         1 SU3      -0.3404
     37 SBM        -9.1077   -5.2412   12.0340 S.o2        1 SU3       0.0645
     38 CBN        -7.9058   -5.6879   13.3117 C.3         1 SU3       0.1004
     39 OBO        -8.5860   -6.0335   10.7554 O.2         1 SU3      -0.1503
     40 OBP        -8.9803   -3.7393   11.5354 O.2         1 SU3      -0.1503
     41 CBQ        -8.2548   -5.5383   14.7997 C.3         1 SU3      -0.0268
     42 CBR        -8.2102   -6.9308   14.1598 C.3         1 SU3      -0.0268
     43 CBS       -13.8066  -16.9082   15.7976 C.3         1 SU3      -0.0433
     44 CBT       -15.0834  -16.6418   16.6439 C.3         1 SU3      -0.0507
     45 CBU       -15.9914  -15.4933   16.1037 C.3         1 SU3      -0.0453
     46 CBV       -17.2480  -15.1001   16.9675 C.3         1 SU3      -0.0072
     47 CBW       -18.1517  -14.1101   16.1508 C.3         1 SU3       0.0824
     48 CBX       -18.1179  -16.3584   17.3013 C.3         1 SU3      -0.0574
     49 CBY       -16.8129  -14.4165   18.3053 C.3         1 SU3      -0.0574
     50 CBZ       -17.6296   -8.2010   11.9831 C.3         1 SU3      -0.0558
     51 CCA       -19.2462   -9.5930   13.3334 C.3         1 SU3      -0.0558
     52 CD1       -14.7893  -11.0804   11.1709 C.3         1 SU3       0.0677
     53 OD2       -12.9062  -12.5948   11.4241 O.3         1 SU3      -0.2338
     54 H1        -12.6087   -9.8062   12.9229 H           1 SU3       0.0803
     55 H2        -11.5145  -10.4592   10.9850 H           1 SU3       0.0342
     56 H3        -12.6487   -9.6328    9.8977 H           1 SU3       0.0342
     57 H4        -13.4897  -11.8093    9.5880 H           1 SU3       0.0673
     58 H5        -17.0180  -10.8324   12.4657 H           1 SU3       0.0805
     59 H6        -16.6743  -10.6220   15.3559 H           1 SU3       0.1899
     60 H7        -13.0308   -3.3904   11.7576 H           1 SU3       0.0265
     61 H8        -14.6079   -3.6270   11.0525 H           1 SU3       0.0265
     62 H9        -14.6805   -1.5576   12.2610 H           1 SU3       0.0230
     63 H10       -14.0107   -2.2799   13.7175 H           1 SU3       0.0230
     64 H11       -15.6481   -2.7083   13.1928 H           1 SU3       0.0230
     65 H12       -18.4589   -7.3211   14.5454 H           1 SU3       0.0237
     66 H13       -16.7054   -7.4925   14.4811 H           1 SU3       0.0237
     67 H14       -17.6675   -8.5960   15.4602 H           1 SU3       0.0237
     68 H15       -12.7350   -7.7583   13.8110 H           1 SU3       0.1839
     69 H16       -15.0099   -5.6491   12.2064 H           1 SU3       0.0312
     70 H17       -13.6141   -4.4968   14.7158 H           1 SU3       0.0279
     71 H18       -14.6170   -6.0552   14.5430 H           1 SU3       0.0279
     72 H19        -9.6361  -15.0696   11.2118 H           1 SU3       0.0373
     73 H20       -12.9097  -14.1654   13.5764 H           1 SU3       0.0361
     74 H21        -8.4248  -16.9659   12.9334 H           1 SU3       0.0557
     75 H22        -8.6705  -18.0690   15.0976 H           1 SU3       0.0599
     76 H23       -10.5729  -17.5822   16.5012 H           1 SU3       0.0557
     77 H24       -13.0071  -14.8815   15.8898 H           1 SU3       0.0426
     78 H25       -12.3624  -15.9577   17.1054 H           1 SU3       0.0426
     79 H26       -10.9938   -6.4684   11.5667 H           1 SU3       0.2148
     80 H27        -6.8471   -5.5571   13.0755 H           1 SU3       0.0559
     81 H28        -9.2586   -5.2215   15.0800 H           1 SU3       0.0285
     82 H29        -7.4233   -5.3204   15.4746 H           1 SU3       0.0285
     83 H30        -7.3528   -7.5461   14.4426 H           1 SU3       0.0285
     84 H31        -9.1838   -7.4058   14.0200 H           1 SU3       0.0285
     85 H32       -13.4406  -17.9113   16.0437 H           1 SU3       0.0287
     86 H33       -14.0716  -16.9101   14.7357 H           1 SU3       0.0287
     87 H34       -14.7850  -16.4389   17.6742 H           1 SU3       0.0267
     88 H35       -15.6645  -17.5680   16.6481 H           1 SU3       0.0267
     89 H36       -16.3309  -15.7982   15.1100 H           1 SU3       0.0271
     90 H37       -15.3768  -14.6016   15.9666 H           1 SU3       0.0271
     91 H38       -18.5134  -14.6129   15.2490 H           1 SU3       0.0617
     92 H39       -19.0336  -13.8539   16.7428 H           1 SU3       0.0617
     93 H40       -17.5885  -17.0470   17.9624 H           1 SU3       0.0236
     94 H41       -18.3822  -16.8973   16.3882 H           1 SU3       0.0236
     95 H42       -19.0442  -16.0723   17.8053 H           1 SU3       0.0236
     96 H43       -16.1640  -13.5601   18.1120 H           1 SU3       0.0236
     97 H44       -16.2716  -15.1119   18.9497 H           1 SU3       0.0236
     98 H45       -17.6837  -14.0631   18.8617 H           1 SU3       0.0236
     99 H46       -17.8086   -8.8332   11.1112 H           1 SU3       0.0237
    100 H47       -16.6249   -7.7840   11.8957 H           1 SU3       0.0237
    101 H48       -18.3358   -7.3695   11.9513 H           1 SU3       0.0237
    102 H49       -19.4520  -10.0979   14.2779 H           1 SU3       0.0237
    103 H50       -19.4009  -10.3108   12.5255 H           1 SU3       0.0237
    104 H51       -19.9838   -8.7964   13.2147 H           1 SU3       0.0237
    105 H52       -15.3895  -10.6195   10.3808 H           1 SU3       0.0553
    106 H53       -15.3060  -11.9655   11.5523 H           1 SU3       0.0553
@<TRIPOS>BOND
     1     1     3   2
     2     1     4   1
     3    21     1  am
     4     4     2   1
     5     2     7  am
     6     2    52   1
     7     4     5   1
     8     5     6   1
     9     6    52   1
    10     6    53   1
    11     7     8   2
    12     7     9   1
    13     9    10   1
    14     9    13   1
    15    10    11  am
    16    11    12   1
    17    11    14   2
    18    12    47   1
    19    13    20   1
    20    13    50   1
    21    13    51   1
    22    15    16   2
    23    15    17  am
    24    53    15   1
    25    17    26   1
    26    17    29   1
    27    18    19   1
    28    24    18   1
    29    22    21   1
    30    22    23   1
    31    22    24   1
    32    22    25   1
    33    23    35  am
    34    23    36   2
    35    24    25   1
    36    26    27   2
    37    27    28  ar
    38    27    30  ar
    39    28    29   2
    40    28    33  ar
    41    30    31  ar
    42    31    32  ar
    43    32    33  ar
    44    33    34   1
    45    34    43   1
    46    35    37  am
    47    37    38   1
    48    37    39   2
    49    37    40   2
    50    38    41   1
    51    38    42   1
    52    41    42   1
    53    43    44   1
    54    44    45   1
    55    45    46   1
    56    46    47   1
    57    46    48   1
    58    46    49   1
    59     4    54   1
    60     5    55   1
    61     5    56   1
    62     6    57   1
    63     9    58   1
    64    10    59   1
    65    18    60   1
    66    18    61   1
    67    19    62   1
    68    19    63   1
    69    19    64   1
    70    20    65   1
    71    20    66   1
    72    20    67   1
    73    21    68   1
    74    24    69   1
    75    25    70   1
    76    25    71   1
    77    26    72   1
    78    29    73   1
    79    30    74   1
    80    31    75   1
    81    32    76   1
    82    34    77   1
    83    34    78   1
    84    35    79   1
    85    38    80   1
    86    41    81   1
    87    41    82   1
    88    42    83   1
    89    42    84   1
    90    43    85   1
    91    43    86   1
    92    44    87   1
    93    44    88   1
    94    45    89   1
    95    45    90   1
    96    47    91   1
    97    47    92   1
    98    48    93   1
    99    48    94   1
   100    48    95   1
   101    49    96   1
   102    49    97   1
   103    49    98   1
   104    50    99   1
   105    50   100   1
   106    50   101   1
   107    51   102   1
   108    51   103   1
   109    51   104   1
   110    52   105   1
   111    52   106   1
@<TRIPOS>SUBSTRUCTURE
     1  SU3      1

