@<TRIPOS>MOLECULE
3su3_ligand_035
   106   111
SMALL
GAST_HUCK
****
This file was generated by PARSER (from files_GN.cpp)

@<TRIPOS>ATOM
      1 C          -6.9910   -3.7983   11.0290 C.2         1 SU3       0.2013
      2 N          -8.6057   -5.6276   10.7291 N.am        1 SU3      -0.2469
      3 O          -6.1136   -4.3717   10.3956 O.2         1 SU3      -0.3947
      4 CA         -8.0777   -4.5937   11.5954 C.3         1 SU3       0.1363
      5 CB         -7.5973   -5.3547   12.8538 C.3         1 SU3       0.0206
      6 CG         -8.5433   -6.5625   12.8959 C.3         1 SU3       0.1158
      7 CAF        -9.1002   -5.3950    9.4996 C.2         1 SU3       0.2070
      8 OAG        -9.2893   -4.2301    9.1718 O.2         1 SU3      -0.3942
      9 CAH        -9.3924   -6.4082    8.4746 C.3         1 SU3       0.1378
     10 NAI       -10.8185   -6.4479    8.2965 N.am        1 SU3      -0.2407
     11 CAJ       -11.6386   -7.5061    8.4779 C.2         1 SU3       0.3218
     12 OAK       -12.9433   -7.3461    8.1272 O.3         1 SU3      -0.2633
     13 CAL        -8.6425   -6.2116    7.0828 C.3         1 SU3       0.0025
     14 OAM       -11.1825   -8.7016    8.9224 O.2         1 SU3      -0.3774
     15 CAO       -10.1758   -5.7582   14.6382 C.2         1 SU3       0.4317
     16 OAP        -9.2224   -5.6558   15.5945 O.2         1 SU3      -0.3166
     17 NAQ       -11.4369   -5.3168   14.8700 N.am        1 SU3      -0.2080
     18 CAR        -5.5591    1.1206   10.6678 C.3         1 SU3      -0.0516
     19 CAS        -4.9761    2.1217   11.6872 C.3         1 SU3      -0.0651
     20 CAT        -7.2085   -5.6118    7.2860 C.3         1 SU3      -0.0558
     21 NAV        -6.9425   -2.4907   11.2502 N.am        1 SU3      -0.2737
     22 CAX        -5.8751   -1.6022   10.8927 C.3         1 SU3       0.1374
     23 CAY        -5.2369   -1.7456    9.5969 C.2         1 SU3       0.2444
     24 CAZ        -6.1307   -0.1435   11.3622 C.3         1 SU3      -0.0066
     25 CBA        -5.1054   -1.0188   12.0964 C.3         1 SU3      -0.0152
     26 CBB       -11.8672   -4.7077   15.9970 C.2         1 SU3       0.0383
     27 CBC       -13.1934   -4.3327   15.8217 C.ar        1 SU3      -0.0374
     28 CBD       -13.5856   -4.7549   14.5532 C.ar        1 SU3      -0.0293
     29 CBE       -12.4639   -5.3595   13.9881 C.2         1 SU3       0.0366
     30 CBF       -14.0772   -3.6483   16.6699 C.ar        1 SU3      -0.0689
     31 CBG       -15.3808   -3.3880   16.2093 C.ar        1 SU3      -0.0688
     32 CBH       -15.7895   -3.8299   14.9315 C.ar        1 SU3      -0.0606
     33 CBI       -14.8972   -4.5223   14.0731 C.ar        1 SU3      -0.0432
     34 CBJ       -15.3360   -4.9970   12.7334 C.3         1 SU3      -0.0194
     35 NBK        -5.9588   -1.5679    8.5040 N.am        1 SU3      -0.1552
     36 OBL        -4.0725   -2.1193    9.5553 O.2         1 SU3      -0.3404
     37 SBM        -5.4281   -1.7887    6.9164 S.o2        1 SU3       0.0645
     38 CBN        -5.3591   -0.3200    5.8689 C.3         1 SU3       0.1004
     39 OBO        -4.0248   -2.5403    6.8581 O.2         1 SU3      -0.1503
     40 OBP        -6.4285   -2.8344    6.2530 O.2         1 SU3      -0.1503
     41 CBQ        -6.4206    0.7637    6.1155 C.3         1 SU3      -0.0268
     42 CBR        -4.9527    1.0238    6.4924 C.3         1 SU3      -0.0268
     43 CBS       -15.6567   -6.5167   12.7350 C.3         1 SU3      -0.0433
     44 CBT       -16.1023   -7.0647   11.3492 C.3         1 SU3      -0.0507
     45 CBU       -14.9234   -7.3916   10.3819 C.3         1 SU3      -0.0453
     46 CBV       -15.2918   -7.7571    8.8944 C.3         1 SU3      -0.0072
     47 CBW       -14.0134   -8.3063    8.1717 C.3         1 SU3       0.0824
     48 CBX       -16.3920   -8.8678    8.8354 C.3         1 SU3      -0.0574
     49 CBY       -15.8035   -6.4978    8.1201 C.3         1 SU3      -0.0574
     50 CBZ        -8.4804   -7.6105    6.3942 C.3         1 SU3      -0.0558
     51 CCA        -9.4120   -5.2866    6.0765 C.3         1 SU3      -0.0558
     52 CD1        -8.6692   -6.8991   11.3981 C.3         1 SU3       0.0677
     53 OD2        -9.8407   -6.1994   13.3966 O.3         1 SU3      -0.2338
     54 H1         -8.9118   -3.9436   11.8862 H           1 SU3       0.0803
     55 H2         -7.6567   -4.7344   13.7486 H           1 SU3       0.0342
     56 H3         -6.5685   -5.7165   12.7527 H           1 SU3       0.0342
     57 H4         -8.1282   -7.3986   13.4688 H           1 SU3       0.0673
     58 H5         -9.0493   -7.3716    8.8631 H           1 SU3       0.0805
     59 H6        -11.2378   -5.6337    7.9765 H           1 SU3       0.1899
     60 H7         -4.7747    0.8601    9.9504 H           1 SU3       0.0265
     61 H8         -6.3718    1.6048   10.1181 H           1 SU3       0.0265
     62 H9         -4.6835    3.0412   11.1789 H           1 SU3       0.0230
     63 H10        -4.0970    1.6960   12.1718 H           1 SU3       0.0230
     64 H11        -5.7175    2.3672   12.4504 H           1 SU3       0.0230
     65 H12        -6.6286   -5.6421    6.3634 H           1 SU3       0.0237
     66 H13        -6.6657   -6.1710    8.0472 H           1 SU3       0.0237
     67 H14        -7.2614   -4.5677    7.6046 H           1 SU3       0.0237
     68 H15        -7.6629   -2.1134   11.7859 H           1 SU3       0.1839
     69 H16        -7.0458    0.0103   11.9392 H           1 SU3       0.0312
     70 H17        -4.0586   -0.7654   11.9353 H           1 SU3       0.0279
     71 H18        -5.4165   -1.3572   13.0871 H           1 SU3       0.0279
     72 H19       -11.3131   -4.5135   16.8337 H           1 SU3       0.0373
     73 H20       -12.4285   -5.7581   13.0446 H           1 SU3       0.0361
     74 H21       -13.7748   -3.3389   17.5943 H           1 SU3       0.0557
     75 H22       -16.0399   -2.8829   16.8068 H           1 SU3       0.0599
     76 H23       -16.7500   -3.6497   14.6338 H           1 SU3       0.0557
     77 H24       -14.5599   -4.7691   12.0006 H           1 SU3       0.0426
     78 H25       -16.2326   -4.4551   12.4211 H           1 SU3       0.0426
     79 H26        -6.8864   -1.3052    8.6195 H           1 SU3       0.2148
     80 H27        -5.0698   -0.4464    4.8260 H           1 SU3       0.0559
     81 H28        -7.0932    0.6338    6.9629 H           1 SU3       0.0285
     82 H29        -6.7742    1.2964    5.2315 H           1 SU3       0.0285
     83 H30        -4.4198    1.7130    5.8363 H           1 SU3       0.0285
     84 H31        -4.7380    1.0298    7.5602 H           1 SU3       0.0285
     85 H32       -16.4713   -6.6888   13.4450 H           1 SU3       0.0287
     86 H33       -14.7932   -7.0870   13.0850 H           1 SU3       0.0287
     87 H34       -16.7874   -6.3484   10.8873 H           1 SU3       0.0267
     88 H35       -16.6654   -7.9868   11.5252 H           1 SU3       0.0267
     89 H36       -14.3748   -8.2291   10.8252 H           1 SU3       0.0271
     90 H37       -14.2391   -6.5404   10.3698 H           1 SU3       0.0271
     91 H38       -13.6795   -9.2285    8.6527 H           1 SU3       0.0617
     92 H39       -14.2503   -8.5528    7.1348 H           1 SU3       0.0617
     93 H40       -17.3402   -8.5038    9.2358 H           1 SU3       0.0236
     94 H41       -16.0893   -9.7439    9.4133 H           1 SU3       0.0236
     95 H42       -16.5716   -9.1840    7.8042 H           1 SU3       0.0236
     96 H43       -15.0670   -5.6918    8.1568 H           1 SU3       0.0236
     97 H44       -16.7366   -6.1241    8.5461 H           1 SU3       0.0236
     98 H45       -15.9908   -6.7400    7.0713 H           1 SU3       0.0236
     99 H46        -9.4520   -8.0928    6.2558 H           1 SU3       0.0237
    100 H47        -7.8573   -8.2738    7.0022 H           1 SU3       0.0237
    101 H48        -8.0112   -7.5164    5.4120 H           1 SU3       0.0237
    102 H49        -9.6069   -4.3026    6.5033 H           1 SU3       0.0237
    103 H50       -10.3722   -5.7265    5.7931 H           1 SU3       0.0237
    104 H51        -8.8334   -5.1386    5.1627 H           1 SU3       0.0237
    105 H52        -7.8379   -7.5304   11.0778 H           1 SU3       0.0553
    106 H53        -9.6138   -7.4204   11.2199 H           1 SU3       0.0553
@<TRIPOS>BOND
     1     1     3   2
     2     1     4   1
     3    21     1  am
     4     4     2   1
     5     2     7  am
     6     2    52   1
     7     4     5   1
     8     5     6   1
     9     6    52   1
    10     6    53   1
    11     7     8   2
    12     7     9   1
    13     9    10   1
    14     9    13   1
    15    10    11  am
    16    11    12   1
    17    11    14   2
    18    12    47   1
    19    13    20   1
    20    13    50   1
    21    13    51   1
    22    15    16   2
    23    15    17  am
    24    53    15   1
    25    17    26   1
    26    17    29   1
    27    18    19   1
    28    24    18   1
    29    22    21   1
    30    22    23   1
    31    22    24   1
    32    22    25   1
    33    23    35  am
    34    23    36   2
    35    24    25   1
    36    26    27   2
    37    27    28  ar
    38    27    30  ar
    39    28    29   2
    40    28    33  ar
    41    30    31  ar
    42    31    32  ar
    43    32    33  ar
    44    33    34   1
    45    34    43   1
    46    35    37  am
    47    37    38   1
    48    37    39   2
    49    37    40   2
    50    38    41   1
    51    38    42   1
    52    41    42   1
    53    43    44   1
    54    44    45   1
    55    45    46   1
    56    46    47   1
    57    46    48   1
    58    46    49   1
    59     4    54   1
    60     5    55   1
    61     5    56   1
    62     6    57   1
    63     9    58   1
    64    10    59   1
    65    18    60   1
    66    18    61   1
    67    19    62   1
    68    19    63   1
    69    19    64   1
    70    20    65   1
    71    20    66   1
    72    20    67   1
    73    21    68   1
    74    24    69   1
    75    25    70   1
    76    25    71   1
    77    26    72   1
    78    29    73   1
    79    30    74   1
    80    31    75   1
    81    32    76   1
    82    34    77   1
    83    34    78   1
    84    35    79   1
    85    38    80   1
    86    41    81   1
    87    41    82   1
    88    42    83   1
    89    42    84   1
    90    43    85   1
    91    43    86   1
    92    44    87   1
    93    44    88   1
    94    45    89   1
    95    45    90   1
    96    47    91   1
    97    47    92   1
    98    48    93   1
    99    48    94   1
   100    48    95   1
   101    49    96   1
   102    49    97   1
   103    49    98   1
   104    50    99   1
   105    50   100   1
   106    50   101   1
   107    51   102   1
   108    51   103   1
   109    51   104   1
   110    52   105   1
   111    52   106   1
@<TRIPOS>SUBSTRUCTURE
     1  SU3      1

