@<TRIPOS>MOLECULE
3su3_ligand_032
   106   111
SMALL
GAST_HUCK
****
This file was generated by PARSER (from files_GN.cpp)

@<TRIPOS>ATOM
      1 C         -15.1182  -17.6747   20.2052 C.2         1 SU3       0.2013
      2 N         -15.5424  -16.4505   18.1369 N.am        1 SU3      -0.2469
      3 O         -15.6180  -16.7344   20.8143 O.2         1 SU3      -0.3947
      4 CA        -14.7550  -17.4742   18.8030 C.3         1 SU3       0.1363
      5 CB        -13.2803  -17.0156   18.6695 C.3         1 SU3       0.0206
      6 CG        -13.3050  -16.0213   17.4990 C.3         1 SU3       0.1158
      7 CAF       -16.8807  -16.4983   17.9922 C.2         1 SU3       0.2070
      8 OAG       -17.4380  -17.5654   18.2430 O.2         1 SU3      -0.3942
      9 CAH       -17.7487  -15.3907   17.5398 C.3         1 SU3       0.1378
     10 NAI       -18.2961  -15.7395   16.2532 N.am        1 SU3      -0.2407
     11 CAJ       -18.2297  -14.9852   15.1293 C.2         1 SU3       0.3218
     12 OAK       -19.0056  -15.3475   14.0697 O.3         1 SU3      -0.2633
     13 CAL       -18.8797  -14.9411   18.5592 C.3         1 SU3       0.0025
     14 OAM       -17.5136  -13.8376   15.0849 O.2         1 SU3      -0.3774
     15 CAO       -12.0716  -17.2260   15.6584 C.2         1 SU3       0.4317
     16 OAP       -10.8987  -17.2208   16.3356 O.2         1 SU3      -0.3166
     17 NAQ       -12.1492  -17.7786   14.4235 N.am        1 SU3      -0.2080
     18 CAR       -16.5908  -18.0604   24.3085 C.3         1 SU3      -0.0516
     19 CAS       -17.5619  -16.9042   24.6220 C.3         1 SU3      -0.0651
     20 CAT       -19.8818  -16.0847   18.9363 C.3         1 SU3      -0.0558
     21 NAV       -14.9440  -18.8466   20.8153 N.am        1 SU3      -0.2737
     22 CAX       -15.2953  -19.1357   22.1801 C.3         1 SU3       0.1374
     23 CAY       -14.2090  -19.5759   23.0371 C.2         1 SU3       0.2444
     24 CAZ       -16.5134  -18.3767   22.7816 C.3         1 SU3      -0.0066
     25 CBA       -16.6647  -19.8343   22.3119 C.3         1 SU3      -0.0152
     26 CBB       -11.1357  -18.3709   13.7489 C.2         1 SU3       0.0383
     27 CBC       -11.6017  -18.7805   12.5069 C.ar        1 SU3      -0.0374
     28 CBD       -12.9498  -18.4353   12.4315 C.ar        1 SU3      -0.0293
     29 CBE       -13.2549  -17.8162   13.6431 C.2         1 SU3       0.0366
     30 CBF       -10.9490  -19.4117   11.4330 C.ar        1 SU3      -0.0689
     31 CBG       -11.6912  -19.6830   10.2647 C.ar        1 SU3      -0.0688
     32 CBH       -13.0543  -19.3330   10.1856 C.ar        1 SU3      -0.0606
     33 CBI       -13.7167  -18.7062   11.2740 C.ar        1 SU3      -0.0432
     34 CBJ       -15.1546  -18.3420   11.1685 C.3         1 SU3      -0.0194
     35 NBK       -14.1559  -20.8081   23.5208 N.am        1 SU3      -0.1552
     36 OBL       -13.3314  -18.7624   23.2867 O.2         1 SU3      -0.3404
     37 SBM       -12.9517  -21.4386   24.5270 S.o2        1 SU3       0.0645
     38 CBN       -11.8561  -22.6480   23.7362 C.3         1 SU3       0.1004
     39 OBO       -12.1138  -20.3093   25.2555 O.2         1 SU3      -0.1503
     40 OBP       -13.7022  -22.1763   25.7217 O.2         1 SU3      -0.1503
     41 CBQ       -12.5044  -23.6258   22.7465 C.3         1 SU3      -0.0268
     42 CBR       -11.5776  -22.5122   22.2331 C.3         1 SU3      -0.0268
     43 CBS       -15.3597  -17.0246   10.3713 C.3         1 SU3      -0.0433
     44 CBT       -16.8416  -16.5696   10.2619 C.3         1 SU3      -0.0507
     45 CBU       -17.3973  -15.8754   11.5443 C.3         1 SU3      -0.0453
     46 CBV       -18.9183  -15.4702   11.5482 C.3         1 SU3      -0.0072
     47 CBW       -19.2185  -14.6296   12.8403 C.3         1 SU3       0.0824
     48 CBX       -19.2711  -14.5862   10.3053 C.3         1 SU3      -0.0574
     49 CBY       -19.8386  -16.7341   11.5456 C.3         1 SU3      -0.0574
     50 CBZ       -18.2282  -14.3934   19.8730 C.3         1 SU3      -0.0558
     51 CCA       -19.7157  -13.7744   17.9287 C.3         1 SU3      -0.0558
     52 CD1       -14.7081  -15.4070   17.6075 C.3         1 SU3       0.0677
     53 OD2       -13.1756  -16.6635   16.2213 O.3         1 SU3      -0.2338
     54 H1        -14.8715  -18.4099   18.2545 H           1 SU3       0.0803
     55 H2        -12.6183  -17.8621   18.4657 H           1 SU3       0.0342
     56 H3        -12.9179  -16.5015   19.5688 H           1 SU3       0.0342
     57 H4        -12.5410  -15.2499   17.6066 H           1 SU3       0.0673
     58 H5        -17.1197  -14.5089   17.4226 H           1 SU3       0.0805
     59 H6        -18.8530  -16.5338   16.2138 H           1 SU3       0.1899
     60 H7        -16.9154  -18.9396   24.8698 H           1 SU3       0.0265
     61 H8        -15.6007  -17.7721   24.6620 H           1 SU3       0.0265
     62 H9        -17.5684  -16.7000   25.6951 H           1 SU3       0.0230
     63 H10       -18.5728  -17.1677   24.3120 H           1 SU3       0.0230
     64 H11       -17.2479  -15.9987   24.1001 H           1 SU3       0.0230
     65 H12       -20.7240  -15.6916   19.5093 H           1 SU3       0.0237
     66 H13       -19.4075  -16.8471   19.5523 H           1 SU3       0.0237
     67 H14       -20.2789  -16.5631   18.0406 H           1 SU3       0.0237
     68 H15       -14.4651  -19.5425   20.3211 H           1 SU3       0.1839
     69 H16       -16.9904  -17.6625   22.0982 H           1 SU3       0.0312
     70 H17       -16.8205  -20.5524   23.1155 H           1 SU3       0.0279
     71 H18       -17.2628  -19.9476   21.4010 H           1 SU3       0.0279
     72 H19       -10.1752  -18.4858   14.0836 H           1 SU3       0.0373
     73 H20       -14.1693  -17.4311   13.8899 H           1 SU3       0.0361
     74 H21        -9.9608  -19.6612   11.4945 H           1 SU3       0.0557
     75 H22       -11.2350  -20.1375    9.4703 H           1 SU3       0.0599
     76 H23       -13.5685  -19.5420    9.3260 H           1 SU3       0.0557
     77 H24       -15.5903  -18.2378   12.1619 H           1 SU3       0.0426
     78 H25       -15.6954  -19.1540   10.6760 H           1 SU3       0.0426
     79 H26       -14.8668  -21.4196   23.2798 H           1 SU3       0.2148
     80 H27       -11.0559  -23.0926   24.3345 H           1 SU3       0.0559
     81 H28       -13.5649  -23.4859   22.5268 H           1 SU3       0.0285
     82 H29       -12.0805  -24.6293   22.7224 H           1 SU3       0.0285
     83 H30       -10.5912  -22.8386   21.9031 H           1 SU3       0.0285
     84 H31       -12.0799  -21.6995   21.7050 H           1 SU3       0.0285
     85 H32       -14.9778  -17.1767    9.3563 H           1 SU3       0.0287
     86 H33       -14.7678  -16.2228   10.8253 H           1 SU3       0.0287
     87 H34       -17.4552  -17.4321   10.0021 H           1 SU3       0.0267
     88 H35       -16.9011  -15.8602    9.4350 H           1 SU3       0.0267
     89 H36       -16.7966  -14.9742   11.7061 H           1 SU3       0.0271
     90 H37       -17.2172  -16.5310   12.3986 H           1 SU3       0.0271
     91 H38       -18.6278  -13.7094   12.8200 H           1 SU3       0.0617
     92 H39       -20.2685  -14.3271   12.8412 H           1 SU3       0.0617
     93 H40       -19.1859  -15.1555    9.3775 H           1 SU3       0.0236
     94 H41       -18.6012  -13.7255   10.2401 H           1 SU3       0.0236
     95 H42       -20.2965  -14.2147   10.3663 H           1 SU3       0.0236
     96 H43       -19.5933  -17.3953   12.3791 H           1 SU3       0.0236
     97 H44       -19.7302  -17.3009   10.6198 H           1 SU3       0.0236
     98 H45       -20.8894  -16.4488   11.6363 H           1 SU3       0.0236
     99 H46       -17.5527  -13.5595   19.6575 H           1 SU3       0.0237
    100 H47       -17.6500  -15.1704   20.3809 H           1 SU3       0.0237
    101 H48       -18.9902  -14.0381   20.5725 H           1 SU3       0.0237
    102 H49       -20.2754  -14.1180   17.0572 H           1 SU3       0.0237
    103 H50       -19.0676  -12.9518   17.6100 H           1 SU3       0.0237
    104 H51       -20.4378  -13.3698   18.6430 H           1 SU3       0.0237
    105 H52       -14.7112  -14.5601   18.2999 H           1 SU3       0.0553
    106 H53       -15.0272  -15.0703   16.6179 H           1 SU3       0.0553
@<TRIPOS>BOND
     1     1     3   2
     2     1     4   1
     3    21     1  am
     4     4     2   1
     5     2     7  am
     6     2    52   1
     7     4     5   1
     8     5     6   1
     9     6    52   1
    10     6    53   1
    11     7     8   2
    12     7     9   1
    13     9    10   1
    14     9    13   1
    15    10    11  am
    16    11    12   1
    17    11    14   2
    18    12    47   1
    19    13    20   1
    20    13    50   1
    21    13    51   1
    22    15    16   2
    23    15    17  am
    24    53    15   1
    25    17    26   1
    26    17    29   1
    27    18    19   1
    28    24    18   1
    29    22    21   1
    30    22    23   1
    31    22    24   1
    32    22    25   1
    33    23    35  am
    34    23    36   2
    35    24    25   1
    36    26    27   2
    37    27    28  ar
    38    27    30  ar
    39    28    29   2
    40    28    33  ar
    41    30    31  ar
    42    31    32  ar
    43    32    33  ar
    44    33    34   1
    45    34    43   1
    46    35    37  am
    47    37    38   1
    48    37    39   2
    49    37    40   2
    50    38    41   1
    51    38    42   1
    52    41    42   1
    53    43    44   1
    54    44    45   1
    55    45    46   1
    56    46    47   1
    57    46    48   1
    58    46    49   1
    59     4    54   1
    60     5    55   1
    61     5    56   1
    62     6    57   1
    63     9    58   1
    64    10    59   1
    65    18    60   1
    66    18    61   1
    67    19    62   1
    68    19    63   1
    69    19    64   1
    70    20    65   1
    71    20    66   1
    72    20    67   1
    73    21    68   1
    74    24    69   1
    75    25    70   1
    76    25    71   1
    77    26    72   1
    78    29    73   1
    79    30    74   1
    80    31    75   1
    81    32    76   1
    82    34    77   1
    83    34    78   1
    84    35    79   1
    85    38    80   1
    86    41    81   1
    87    41    82   1
    88    42    83   1
    89    42    84   1
    90    43    85   1
    91    43    86   1
    92    44    87   1
    93    44    88   1
    94    45    89   1
    95    45    90   1
    96    47    91   1
    97    47    92   1
    98    48    93   1
    99    48    94   1
   100    48    95   1
   101    49    96   1
   102    49    97   1
   103    49    98   1
   104    50    99   1
   105    50   100   1
   106    50   101   1
   107    51   102   1
   108    51   103   1
   109    51   104   1
   110    52   105   1
   111    52   106   1
@<TRIPOS>SUBSTRUCTURE
     1  SU3      1

