@<TRIPOS>MOLECULE
3su3_ligand_009
   106   111
SMALL
GAST_HUCK
****
This file was generated by PARSER (from files_GN.cpp)

@<TRIPOS>ATOM
      1 C         -12.3132   -7.9658   12.4413 C.2         1 SU3       0.2013
      2 N         -13.0801  -10.2222   11.8324 N.am        1 SU3      -0.2469
      3 O         -13.1347   -7.1776   11.9933 O.2         1 SU3      -0.3947
      4 CA        -12.0381   -9.2202   11.7277 C.3         1 SU3       0.1363
      5 CB        -11.7909   -9.0275   10.2049 C.3         1 SU3       0.0206
      6 CG        -12.3301  -10.3272    9.5903 C.3         1 SU3       0.1158
      7 CAF       -13.5047  -10.7300   13.0044 C.2         1 SU3       0.2070
      8 OAG       -12.8693  -10.4362   14.0130 O.2         1 SU3      -0.3942
      9 CAH       -14.6512  -11.6331   13.2357 C.3         1 SU3       0.1378
     10 NAI       -14.1661  -12.7736   13.9823 N.am        1 SU3      -0.2407
     11 CAJ       -14.2571  -14.0741   13.6246 C.2         1 SU3       0.3218
     12 OAK       -13.8291  -15.0051   14.5155 O.3         1 SU3      -0.2633
     13 CAL       -15.9158  -10.9395   13.9182 C.3         1 SU3       0.0025
     14 OAM       -14.8361  -14.4601   12.4633 O.2         1 SU3      -0.3774
     15 CAO       -10.2228  -11.4858    8.8439 C.2         1 SU3       0.4317
     16 OAP       -10.0002  -10.6016    7.8428 O.2         1 SU3      -0.3166
     17 NAQ        -9.3509  -12.4949    9.0823 N.am        1 SU3      -0.2080
     18 CAR       -12.9751   -4.1625   14.8115 C.3         1 SU3      -0.0516
     19 CAS       -14.2431   -3.6944   15.5611 C.3         1 SU3      -0.0651
     20 CAT       -15.5894   -9.6230   14.7093 C.3         1 SU3      -0.0558
     21 NAV       -11.6922   -7.7102   13.5916 N.am        1 SU3      -0.2737
     22 CAX       -11.7019   -6.4833   14.3238 C.3         1 SU3       0.1374
     23 CAY       -10.3729   -5.9074   14.4964 C.2         1 SU3       0.2444
     24 CAZ       -13.0137   -5.6829   14.5338 C.3         1 SU3      -0.0066
     25 CBA       -12.5421   -6.6489   15.6286 C.3         1 SU3      -0.0152
     26 CBB        -8.2333  -12.7697    8.3717 C.2         1 SU3       0.0383
     27 CBC        -7.6102  -13.8781    8.9318 C.ar        1 SU3      -0.0374
     28 CBD        -8.3722  -14.2773   10.0292 C.ar        1 SU3      -0.0293
     29 CBE        -9.4496  -13.3963   10.0849 C.2         1 SU3       0.0366
     30 CBF        -6.4422  -14.5640    8.5616 C.ar        1 SU3      -0.0689
     31 CBG        -6.0503  -15.6797    9.3313 C.ar        1 SU3      -0.0688
     32 CBH        -6.8139  -16.0801   10.4469 C.ar        1 SU3      -0.0606
     33 CBI        -7.9918  -15.3853   10.8239 C.ar        1 SU3      -0.0432
     34 CBJ        -8.7596  -15.8052   12.0297 C.3         1 SU3      -0.0194
     35 NBK        -9.5006   -5.9961   13.4909 N.am        1 SU3      -0.1552
     36 OBL       -10.0264   -5.3875   15.5606 O.2         1 SU3      -0.3404
     37 SBM        -7.8543   -5.6430   13.5328 S.o2        1 SU3       0.0645
     38 CBN        -6.6929   -6.9749   13.1617 C.3         1 SU3       0.1004
     39 OBO        -7.5866   -4.4244   12.5399 O.2         1 SU3      -0.1503
     40 OBP        -7.4204   -5.0518   14.9573 O.2         1 SU3      -0.1503
     41 CBQ        -6.7186   -8.2184   14.0627 C.3         1 SU3      -0.0268
     42 CBR        -7.2285   -8.3065   12.6141 C.3         1 SU3      -0.0268
     43 CBS        -9.5140  -17.1468   11.8419 C.3         1 SU3      -0.0433
     44 CBT       -10.3385  -17.5815   13.0887 C.3         1 SU3      -0.0507
     45 CBU       -11.6824  -16.8153   13.2798 C.3         1 SU3      -0.0453
     46 CBV       -12.5598  -17.1862   14.5377 C.3         1 SU3      -0.0072
     47 CBW       -13.9363  -16.4413   14.4446 C.3         1 SU3       0.0824
     48 CBX       -12.8535  -18.7239   14.5837 C.3         1 SU3      -0.0574
     49 CBY       -11.8458  -16.7714   15.8658 C.3         1 SU3      -0.0574
     50 CBZ       -16.9667  -10.5572   12.8166 C.3         1 SU3      -0.0558
     51 CCA       -16.6350  -11.9105   14.9203 C.3         1 SU3      -0.0558
     52 CD1       -13.4903  -10.6882   10.5364 C.3         1 SU3       0.0677
     53 OD2       -11.3328  -11.3547    9.6228 O.3         1 SU3      -0.2338
     54 H1        -11.1184   -9.6593   12.1364 H           1 SU3       0.0803
     55 H2        -10.7281   -8.8738    9.9852 H           1 SU3       0.0342
     56 H3        -12.3541   -8.1857    9.7851 H           1 SU3       0.0342
     57 H4        -12.6893  -10.1866    8.5684 H           1 SU3       0.0673
     58 H5        -15.0003  -12.0000   12.2744 H           1 SU3       0.0805
     59 H6        -13.7616  -12.5897   14.8447 H           1 SU3       0.1899
     60 H7        -12.0943   -3.8719   15.3944 H           1 SU3       0.0265
     61 H8        -12.9316   -3.6445   13.8472 H           1 SU3       0.0265
     62 H9        -14.2134   -2.6106   15.6985 H           1 SU3       0.0230
     63 H10       -14.3092   -4.1695   16.5421 H           1 SU3       0.0230
     64 H11       -15.1416   -3.9449   14.9880 H           1 SU3       0.0230
     65 H12       -16.4792   -9.2139   15.1947 H           1 SU3       0.0237
     66 H13       -15.2128   -8.8521   14.0328 H           1 SU3       0.0237
     67 H14       -14.8315   -9.8119   15.4735 H           1 SU3       0.0237
     68 H15       -11.1118   -8.4044   13.9353 H           1 SU3       0.1839
     69 H16       -13.8831   -6.0491   13.9889 H           1 SU3       0.0312
     70 H17       -12.2145   -6.1520   16.5506 H           1 SU3       0.0279
     71 H18       -13.1747   -7.5360   15.7269 H           1 SU3       0.0279
     72 H19        -7.8931  -12.2603    7.5502 H           1 SU3       0.0373
     73 H20       -10.1994  -13.4275   10.7792 H           1 SU3       0.0361
     74 H21        -5.8934  -14.2656    7.7522 H           1 SU3       0.0557
     75 H22        -5.2074  -16.1948    9.0764 H           1 SU3       0.0599
     76 H23        -6.4995  -16.8836   10.9915 H           1 SU3       0.0557
     77 H24        -9.4838  -15.0385   12.3033 H           1 SU3       0.0426
     78 H25        -8.0639  -15.8927   12.8706 H           1 SU3       0.0426
     79 H26        -9.8349   -6.3903   12.6587 H           1 SU3       0.2148
     80 H27        -5.6890   -6.7001   12.8373 H           1 SU3       0.0559
     81 H28        -7.5006   -8.2836   14.8233 H           1 SU3       0.0285
     82 H29        -5.7580   -8.6991   14.2521 H           1 SU3       0.0285
     83 H30        -6.5740   -8.8257   11.9140 H           1 SU3       0.0285
     84 H31        -8.3094   -8.4058   12.5172 H           1 SU3       0.0285
     85 H32        -8.7785  -17.9273   11.6357 H           1 SU3       0.0287
     86 H33       -10.1765  -17.0776   10.9764 H           1 SU3       0.0287
     87 H34        -9.7135  -17.4754   13.9788 H           1 SU3       0.0267
     88 H35       -10.5575  -18.6449   12.9679 H           1 SU3       0.0267
     89 H36       -12.2796  -16.9846   12.3804 H           1 SU3       0.0271
     90 H37       -11.4695  -15.7458   13.3221 H           1 SU3       0.0271
     91 H38       -14.4544  -16.7398   13.5303 H           1 SU3       0.0617
     92 H39       -14.5712  -16.7402   15.2828 H           1 SU3       0.0617
     93 H40       -11.9439  -19.3011   14.7594 H           1 SU3       0.0236
     94 H41       -13.2968  -19.0594   13.6432 H           1 SU3       0.0236
     95 H42       -13.5503  -18.9635   15.3916 H           1 SU3       0.0236
     96 H43       -11.5883  -15.7114   15.8484 H           1 SU3       0.0236
     97 H44       -10.9281  -17.3408   16.0256 H           1 SU3       0.0236
     98 H45       -12.4964  -16.9475   16.7257 H           1 SU3       0.0236
     99 H46       -17.3124  -11.4506   12.2854 H           1 SU3       0.0237
    100 H47       -16.5267   -9.8729   12.0849 H           1 SU3       0.0237
    101 H48       -17.8450  -10.0708   13.2531 H           1 SU3       0.0237
    102 H49       -15.9884  -12.1335   15.7759 H           1 SU3       0.0237
    103 H50       -16.8906  -12.8524   14.4284 H           1 SU3       0.0237
    104 H51       -17.5559  -11.4748   15.3136 H           1 SU3       0.0237
    105 H52       -14.4098  -10.1797   10.2366 H           1 SU3       0.0553
    106 H53       -13.6458  -11.7671   10.4959 H           1 SU3       0.0553
@<TRIPOS>BOND
     1     1     3   2
     2     1     4   1
     3    21     1  am
     4     4     2   1
     5     2     7  am
     6     2    52   1
     7     4     5   1
     8     5     6   1
     9     6    52   1
    10     6    53   1
    11     7     8   2
    12     7     9   1
    13     9    10   1
    14     9    13   1
    15    10    11  am
    16    11    12   1
    17    11    14   2
    18    12    47   1
    19    13    20   1
    20    13    50   1
    21    13    51   1
    22    15    16   2
    23    15    17  am
    24    53    15   1
    25    17    26   1
    26    17    29   1
    27    18    19   1
    28    24    18   1
    29    22    21   1
    30    22    23   1
    31    22    24   1
    32    22    25   1
    33    23    35  am
    34    23    36   2
    35    24    25   1
    36    26    27   2
    37    27    28  ar
    38    27    30  ar
    39    28    29   2
    40    28    33  ar
    41    30    31  ar
    42    31    32  ar
    43    32    33  ar
    44    33    34   1
    45    34    43   1
    46    35    37  am
    47    37    38   1
    48    37    39   2
    49    37    40   2
    50    38    41   1
    51    38    42   1
    52    41    42   1
    53    43    44   1
    54    44    45   1
    55    45    46   1
    56    46    47   1
    57    46    48   1
    58    46    49   1
    59     4    54   1
    60     5    55   1
    61     5    56   1
    62     6    57   1
    63     9    58   1
    64    10    59   1
    65    18    60   1
    66    18    61   1
    67    19    62   1
    68    19    63   1
    69    19    64   1
    70    20    65   1
    71    20    66   1
    72    20    67   1
    73    21    68   1
    74    24    69   1
    75    25    70   1
    76    25    71   1
    77    26    72   1
    78    29    73   1
    79    30    74   1
    80    31    75   1
    81    32    76   1
    82    34    77   1
    83    34    78   1
    84    35    79   1
    85    38    80   1
    86    41    81   1
    87    41    82   1
    88    42    83   1
    89    42    84   1
    90    43    85   1
    91    43    86   1
    92    44    87   1
    93    44    88   1
    94    45    89   1
    95    45    90   1
    96    47    91   1
    97    47    92   1
    98    48    93   1
    99    48    94   1
   100    48    95   1
   101    49    96   1
   102    49    97   1
   103    49    98   1
   104    50    99   1
   105    50   100   1
   106    50   101   1
   107    51   102   1
   108    51   103   1
   109    51   104   1
   110    52   105   1
   111    52   106   1
@<TRIPOS>SUBSTRUCTURE
     1  SU3      1

