@<TRIPOS>MOLECULE
3su3_ligand_025
   106   111
SMALL
GAST_HUCK
****
This file was generated by PARSER (from files_GN.cpp)

@<TRIPOS>ATOM
      1 C         -16.8429  -17.8753   21.1706 C.2         1 SU3       0.2013
      2 N         -16.8787  -17.2145   18.7847 N.am        1 SU3      -0.2469
      3 O         -16.7001  -17.2389   22.2058 O.2         1 SU3      -0.3947
      4 CA        -17.5563  -17.2276   20.0669 C.3         1 SU3       0.1363
      5 CB        -18.9072  -17.9377   19.8055 C.3         1 SU3       0.0206
      6 CG        -19.1520  -17.6632   18.3162 C.3         1 SU3       0.1158
      7 CAF       -15.6527  -16.6881   18.5824 C.2         1 SU3       0.2070
      8 OAG       -15.1304  -16.0913   19.5205 O.2         1 SU3      -0.3942
      9 CAH       -14.8628  -16.7553   17.3392 C.3         1 SU3       0.1378
     10 NAI       -14.5069  -15.4136   16.9433 N.am        1 SU3      -0.2407
     11 CAJ       -14.7834  -14.8307   15.7510 C.2         1 SU3       0.3218
     12 OAK       -14.2364  -13.6123   15.4891 O.3         1 SU3      -0.2633
     13 CAL       -13.5935  -17.7109   17.4018 C.3         1 SU3       0.0025
     14 OAM       -15.5153  -15.4667   14.8031 O.2         1 SU3      -0.3774
     15 CAO       -20.8966  -15.8365   18.3870 C.2         1 SU3       0.4317
     16 OAP       -21.8670  -16.6642   18.8567 O.2         1 SU3      -0.3166
     17 NAQ       -21.1301  -14.5128   18.2190 N.am        1 SU3      -0.2080
     18 CAR       -16.0617  -22.2930   23.3584 C.3         1 SU3      -0.0516
     19 CAS       -14.6877  -22.6279   23.9770 C.3         1 SU3      -0.0651
     20 CAT       -14.0550  -19.1975   17.2309 C.3         1 SU3      -0.0558
     21 NAV       -16.3894  -19.1145   21.0421 N.am        1 SU3      -0.2737
     22 CAX       -15.6877  -19.9213   22.0101 C.3         1 SU3       0.1374
     23 CAY       -15.0495  -19.3039   23.1622 C.2         1 SU3       0.2444
     24 CAZ       -16.1138  -21.4130   22.0708 C.3         1 SU3      -0.0066
     25 CBA       -14.8353  -21.0082   21.3140 C.3         1 SU3      -0.0152
     26 CBB       -22.2940  -13.8705   18.4565 C.2         1 SU3       0.0383
     27 CBC       -22.1194  -12.5134   18.1976 C.ar        1 SU3      -0.0374
     28 CBD       -20.7980  -12.3346   17.7863 C.ar        1 SU3      -0.0293
     29 CBE       -20.2178  -13.6000   17.8060 C.2         1 SU3       0.0366
     30 CBF       -23.0107  -11.4368   18.2887 C.ar        1 SU3      -0.0689
     31 CBG       -22.5489  -10.1532   17.9408 C.ar        1 SU3      -0.0688
     32 CBH       -21.2126   -9.9646   17.5240 C.ar        1 SU3      -0.0606
     33 CBI       -20.3038  -11.0507   17.4446 C.ar        1 SU3      -0.0432
     34 CBJ       -18.8950  -10.8191   17.0187 C.3         1 SU3      -0.0194
     35 NBK       -15.6848  -19.3072   24.3254 N.am        1 SU3      -0.1552
     36 OBL       -14.0454  -18.6292   22.9869 O.2         1 SU3      -0.3404
     37 SBM       -15.1807  -18.4639   25.6939 S.o2        1 SU3       0.0645
     38 CBN       -16.5051  -18.4741   26.9224 C.3         1 SU3       0.1004
     39 OBO       -13.9068  -19.1778   26.3267 O.2         1 SU3      -0.1503
     40 OBP       -14.8484  -16.9712   25.2572 O.2         1 SU3      -0.1503
     41 CBQ       -16.5325  -17.3533   27.9759 C.3         1 SU3      -0.0268
     42 CBR       -17.5708  -17.3669   26.8453 C.3         1 SU3      -0.0268
     43 CBS       -18.7754  -10.5988   15.4855 C.3         1 SU3      -0.0433
     44 CBT       -17.3276  -10.3492   14.9721 C.3         1 SU3      -0.0507
     45 CBU       -16.4275  -11.6209   14.9130 C.3         1 SU3      -0.0453
     46 CBV       -14.9445  -11.4478   14.4064 C.3         1 SU3      -0.0072
     47 CBW       -14.2882  -12.8646   14.2594 C.3         1 SU3       0.0824
     48 CBX       -14.9042  -10.7554   13.0039 C.3         1 SU3      -0.0574
     49 CBY       -14.0938  -10.6028   15.4083 C.3         1 SU3      -0.0574
     50 CBZ       -12.6178  -17.3940   16.2184 C.3         1 SU3      -0.0558
     51 CCA       -12.7910  -17.5923   18.7377 C.3         1 SU3      -0.0558
     52 CD1       -17.7265  -17.7225   17.7422 C.3         1 SU3       0.0677
     53 OD2       -19.6634  -16.3342   18.1172 O.3         1 SU3      -0.2338
     54 H1        -17.7708  -16.1861   20.3341 H           1 SU3       0.0803
     55 H2        -19.7064  -17.5437   20.4399 H           1 SU3       0.0342
     56 H3        -18.8426  -19.0221   19.9575 H           1 SU3       0.0342
     57 H4        -19.8055  -18.4073   17.8523 H           1 SU3       0.0673
     58 H5        -15.4839  -17.1799   16.5503 H           1 SU3       0.0805
     59 H6        -13.9525  -14.9054   17.5603 H           1 SU3       0.1899
     60 H7        -16.6856  -21.8229   24.1235 H           1 SU3       0.0265
     61 H8        -16.5217  -23.2547   23.1154 H           1 SU3       0.0265
     62 H9        -14.8384  -23.2144   24.8881 H           1 SU3       0.0230
     63 H10       -14.1487  -21.7147   24.2350 H           1 SU3       0.0230
     64 H11       -14.0902  -23.2214   23.2792 H           1 SU3       0.0230
     65 H12       -13.2027  -19.8864   17.2708 H           1 SU3       0.0237
     66 H13       -14.5591  -19.3527   16.2687 H           1 SU3       0.0237
     67 H14       -14.7527  -19.4769   18.0230 H           1 SU3       0.0237
     68 H15       -16.5387  -19.5373   20.1839 H           1 SU3       0.1839
     69 H16       -16.9557  -21.6457   21.4104 H           1 SU3       0.0312
     70 H17       -13.8744  -21.2513   21.7757 H           1 SU3       0.0279
     71 H18       -14.9273  -21.1181   20.2313 H           1 SU3       0.0279
     72 H19       -23.1670  -14.2940   18.7793 H           1 SU3       0.0373
     73 H20       -19.2483  -13.8039   17.5507 H           1 SU3       0.0361
     74 H21       -23.9760  -11.5791   18.5964 H           1 SU3       0.0557
     75 H22       -23.1828   -9.3541   17.9894 H           1 SU3       0.0599
     76 H23       -20.9063   -9.0204   17.2833 H           1 SU3       0.0557
     77 H24       -18.2678  -11.6620   17.3101 H           1 SU3       0.0426
     78 H25       -18.5052   -9.9432   17.5452 H           1 SU3       0.0426
     79 H26       -16.5291  -19.7840   24.3772 H           1 SU3       0.2148
     80 H27       -16.8768  -19.4414   27.2731 H           1 SU3       0.0559
     81 H28       -15.7618  -16.5830   27.8984 H           1 SU3       0.0285
     82 H29       -16.9020  -17.6437   28.9603 H           1 SU3       0.0285
     83 H30       -18.5790  -17.6589   27.1392 H           1 SU3       0.0285
     84 H31       -17.4380  -16.5894   26.0898 H           1 SU3       0.0285
     85 H32       -19.3763   -9.7249   15.2186 H           1 SU3       0.0287
     86 H33       -19.1977  -11.4596   14.9595 H           1 SU3       0.0287
     87 H34       -16.8622   -9.5826   15.5940 H           1 SU3       0.0267
     88 H35       -17.4167   -9.9423   13.9627 H           1 SU3       0.0267
     89 H36       -16.9327  -12.3416   14.2622 H           1 SU3       0.0271
     90 H37       -16.3969  -12.0653   15.9102 H           1 SU3       0.0271
     91 H38       -14.8132  -13.4303   13.4825 H           1 SU3       0.0617
     92 H39       -13.2531  -12.7583   13.9212 H           1 SU3       0.0617
     93 H40       -15.2399   -9.7191   13.0635 H           1 SU3       0.0236
     94 H41       -15.5452  -11.2833   12.2941 H           1 SU3       0.0236
     95 H42       -13.8882  -10.7465   12.6016 H           1 SU3       0.0236
     96 H43       -14.0923  -11.0612   16.3992 H           1 SU3       0.0236
     97 H44       -14.4844   -9.5885   15.5018 H           1 SU3       0.0236
     98 H45       -13.0563  -10.5279   15.0719 H           1 SU3       0.0236
     99 H46       -12.1686  -16.4080   16.3351 H           1 SU3       0.0237
    100 H47       -13.1437  -17.4181   15.2597 H           1 SU3       0.0237
    101 H48       -11.8042  -18.1228   16.1711 H           1 SU3       0.0237
    102 H49       -13.3599  -17.9776   19.5810 H           1 SU3       0.0237
    103 H50       -12.5392  -16.5544   18.9372 H           1 SU3       0.0237
    104 H51       -11.8712  -18.1686   18.6757 H           1 SU3       0.0237
    105 H52       -17.4453  -18.7529   17.5055 H           1 SU3       0.0553
    106 H53       -17.6956  -17.1207   16.8321 H           1 SU3       0.0553
@<TRIPOS>BOND
     1     1     3   2
     2     1     4   1
     3    21     1  am
     4     4     2   1
     5     2     7  am
     6     2    52   1
     7     4     5   1
     8     5     6   1
     9     6    52   1
    10     6    53   1
    11     7     8   2
    12     7     9   1
    13     9    10   1
    14     9    13   1
    15    10    11  am
    16    11    12   1
    17    11    14   2
    18    12    47   1
    19    13    20   1
    20    13    50   1
    21    13    51   1
    22    15    16   2
    23    15    17  am
    24    53    15   1
    25    17    26   1
    26    17    29   1
    27    18    19   1
    28    24    18   1
    29    22    21   1
    30    22    23   1
    31    22    24   1
    32    22    25   1
    33    23    35  am
    34    23    36   2
    35    24    25   1
    36    26    27   2
    37    27    28  ar
    38    27    30  ar
    39    28    29   2
    40    28    33  ar
    41    30    31  ar
    42    31    32  ar
    43    32    33  ar
    44    33    34   1
    45    34    43   1
    46    35    37  am
    47    37    38   1
    48    37    39   2
    49    37    40   2
    50    38    41   1
    51    38    42   1
    52    41    42   1
    53    43    44   1
    54    44    45   1
    55    45    46   1
    56    46    47   1
    57    46    48   1
    58    46    49   1
    59     4    54   1
    60     5    55   1
    61     5    56   1
    62     6    57   1
    63     9    58   1
    64    10    59   1
    65    18    60   1
    66    18    61   1
    67    19    62   1
    68    19    63   1
    69    19    64   1
    70    20    65   1
    71    20    66   1
    72    20    67   1
    73    21    68   1
    74    24    69   1
    75    25    70   1
    76    25    71   1
    77    26    72   1
    78    29    73   1
    79    30    74   1
    80    31    75   1
    81    32    76   1
    82    34    77   1
    83    34    78   1
    84    35    79   1
    85    38    80   1
    86    41    81   1
    87    41    82   1
    88    42    83   1
    89    42    84   1
    90    43    85   1
    91    43    86   1
    92    44    87   1
    93    44    88   1
    94    45    89   1
    95    45    90   1
    96    47    91   1
    97    47    92   1
    98    48    93   1
    99    48    94   1
   100    48    95   1
   101    49    96   1
   102    49    97   1
   103    49    98   1
   104    50    99   1
   105    50   100   1
   106    50   101   1
   107    51   102   1
   108    51   103   1
   109    51   104   1
   110    52   105   1
   111    52   106   1
@<TRIPOS>SUBSTRUCTURE
     1  SU3      1

