@<TRIPOS>MOLECULE
3su3_ligand_095
   106   111
SMALL
GAST_HUCK
****
This file was generated by PARSER (from files_GN.cpp)

@<TRIPOS>ATOM
      1 C         -14.2362  -18.0555   20.2536 C.2         1 SU3       0.2013
      2 N         -15.3227  -18.2470   18.0291 N.am        1 SU3      -0.2469
      3 O         -13.1067  -17.8025   20.6558 O.2         1 SU3      -0.3947
      4 CA        -14.6830  -17.4056   19.0185 C.3         1 SU3       0.1363
      5 CB        -15.7207  -16.2957   19.3194 C.3         1 SU3       0.0206
      6 CG        -16.5009  -16.1983   18.0029 C.3         1 SU3       0.1158
      7 CAF       -14.7635  -19.3533   17.5080 C.2         1 SU3       0.2070
      8 OAG       -13.5776  -19.5624   17.7512 O.2         1 SU3      -0.3942
      9 CAH       -15.4287  -20.3390   16.6352 C.3         1 SU3       0.1378
     10 NAI       -14.6542  -20.4461   15.4222 N.am        1 SU3      -0.2407
     11 CAJ       -15.0788  -20.2236   14.1579 C.2         1 SU3       0.3218
     12 OAK       -14.1973  -20.4848   13.1623 O.3         1 SU3      -0.2633
     13 CAL       -15.6779  -21.7605   17.2943 C.3         1 SU3       0.0025
     14 OAM       -16.3431  -19.8353   13.8837 O.2         1 SU3      -0.3774
     15 CAO       -15.5365  -14.1197   16.9320 C.2         1 SU3       0.4317
     16 OAP       -16.0914  -13.2925   17.8514 O.2         1 SU3      -0.3166
     17 NAQ       -14.7495  -13.6291   15.9417 N.am        1 SU3      -0.2080
     18 CAR       -15.0733  -22.0097   23.2115 C.3         1 SU3      -0.0516
     19 CAS       -14.2058  -23.2847   23.3018 C.3         1 SU3      -0.0651
     20 CAT       -16.5596  -21.6064   18.5811 C.3         1 SU3      -0.0558
     21 NAV       -15.0310  -18.8819   20.9210 N.am        1 SU3      -0.2737
     22 CAX       -14.7723  -19.4738   22.2063 C.3         1 SU3       0.1374
     23 CAY       -15.4509  -18.8472   23.3199 C.2         1 SU3       0.2444
     24 CAZ       -14.5473  -21.0106   22.1501 C.3         1 SU3      -0.0066
     25 CBA       -13.3933  -20.0829   22.5648 C.3         1 SU3      -0.0152
     26 CBB       -14.4576  -12.3266   15.7239 C.2         1 SU3       0.0383
     27 CBC       -13.6233  -12.2267   14.6169 C.ar        1 SU3      -0.0374
     28 CBD       -13.3859  -13.5209   14.1582 C.ar        1 SU3      -0.0293
     29 CBE       -14.1092  -14.3646   15.0004 C.2         1 SU3       0.0366
     30 CBF       -13.0682  -11.1073   13.9804 C.ar        1 SU3      -0.0689
     31 CBG       -12.2608  -11.3155   12.8444 C.ar        1 SU3      -0.0688
     32 CBH       -12.0091  -12.6246   12.3795 C.ar        1 SU3      -0.0606
     33 CBI       -12.5572  -13.7584   13.0323 C.ar        1 SU3      -0.0432
     34 CBJ       -12.2670  -15.1263   12.5300 C.3         1 SU3      -0.0194
     35 NBK       -16.5804  -19.3520   23.7952 N.am        1 SU3      -0.1552
     36 OBL       -14.9965  -17.7856   23.7311 O.2         1 SU3      -0.3404
     37 SBM       -17.4529  -18.7734   25.1131 S.o2        1 SU3       0.0645
     38 CBN       -19.0373  -18.0489   24.6390 C.3         1 SU3       0.1004
     39 OBO       -17.7415  -20.0289   26.0436 O.2         1 SU3      -0.1503
     40 OBP       -16.5828  -17.8021   26.0290 O.2         1 SU3      -0.1503
     41 CBQ       -19.6029  -16.8884   25.4738 C.3         1 SU3      -0.0268
     42 CBR       -19.0093  -16.6173   24.0815 C.3         1 SU3      -0.0268
     43 CBS       -13.0886  -15.4600   11.2543 C.3         1 SU3      -0.0433
     44 CBT       -12.8564  -16.8939   10.7014 C.3         1 SU3      -0.0507
     45 CBU       -13.6207  -18.0147   11.4676 C.3         1 SU3      -0.0453
     46 CBV       -13.3861  -19.5011   10.9966 C.3         1 SU3      -0.0072
     47 CBW       -14.3995  -20.4396   11.7409 C.3         1 SU3       0.0824
     48 CBX       -13.6395  -19.6573    9.4588 C.3         1 SU3      -0.0574
     49 CBY       -11.9281  -19.9682   11.3188 C.3         1 SU3      -0.0574
     50 CBZ       -16.4654  -22.6786   16.2969 C.3         1 SU3      -0.0558
     51 CCA       -14.3531  -22.5002   17.6899 C.3         1 SU3      -0.0558
     52 CD1       -16.5608  -17.6765   17.5697 C.3         1 SU3       0.0677
     53 OD2       -15.7676  -15.4579   17.0110 O.3         1 SU3      -0.2338
     54 H1        -13.8236  -16.9298   18.5251 H           1 SU3       0.0803
     55 H2        -15.2426  -15.3508   19.5842 H           1 SU3       0.0342
     56 H3        -16.4070  -16.5825   20.1223 H           1 SU3       0.0342
     57 H4        -17.5039  -15.7770   18.1373 H           1 SU3       0.0673
     58 H5        -16.4213  -19.9703   16.3735 H           1 SU3       0.0805
     59 H6        -13.7311  -20.7424   15.5171 H           1 SU3       0.1899
     60 H7        -15.1203  -21.5490   24.1986 H           1 SU3       0.0265
     61 H8        -16.0873  -22.3013   22.9340 H           1 SU3       0.0265
     62 H9        -14.6213  -23.9765   24.0337 H           1 SU3       0.0230
     63 H10       -13.1864  -23.0337   23.5995 H           1 SU3       0.0230
     64 H11       -14.1736  -23.7875   22.3330 H           1 SU3       0.0230
     65 H12       -16.7926  -22.5791   19.0198 H           1 SU3       0.0237
     66 H13       -17.5022  -21.1031   18.3450 H           1 SU3       0.0237
     67 H14       -16.0527  -21.0151   19.3397 H           1 SU3       0.0237
     68 H15       -15.9111  -19.0403   20.5335 H           1 SU3       0.1839
     69 H16       -14.4082  -21.4206   21.1500 H           1 SU3       0.0312
     70 H17       -13.1214  -20.1434   23.6237 H           1 SU3       0.0279
     71 H18       -12.5955  -20.0515   21.8300 H           1 SU3       0.0279
     72 H19       -14.7951  -11.5301   16.2679 H           1 SU3       0.0373
     73 H20       -14.1496  -15.3826   14.9177 H           1 SU3       0.0361
     74 H21       -13.2506  -10.1623   14.3237 H           1 SU3       0.0557
     75 H22       -11.8556  -10.5147   12.3559 H           1 SU3       0.0599
     76 H23       -11.4108  -12.7467   11.5569 H           1 SU3       0.0557
     77 H24       -12.4804  -15.8683   13.2987 H           1 SU3       0.0426
     78 H25       -11.1996  -15.2054   12.3075 H           1 SU3       0.0426
     79 H26       -16.9099  -20.1629   23.3723 H           1 SU3       0.2148
     80 H27       -19.7788  -18.6983   24.1730 H           1 SU3       0.0559
     81 H28       -19.0025  -16.5459   26.3162 H           1 SU3       0.0285
     82 H29       -20.6897  -16.8456   25.5416 H           1 SU3       0.0285
     83 H30       -19.7376  -16.3953   23.3014 H           1 SU3       0.0285
     84 H31       -18.0439  -16.1100   24.0749 H           1 SU3       0.0285
     85 H32       -12.8085  -14.7479   10.4712 H           1 SU3       0.0287
     86 H33       -14.1546  -15.3192   11.4570 H           1 SU3       0.0287
     87 H34       -11.7841  -17.1010   10.6956 H           1 SU3       0.0267
     88 H35       -13.1970  -16.8934    9.6624 H           1 SU3       0.0267
     89 H36       -14.6881  -17.7886   11.3861 H           1 SU3       0.0271
     90 H37       -13.3637  -17.9477   12.5272 H           1 SU3       0.0271
     91 H38       -15.4253  -20.1404   11.5078 H           1 SU3       0.0617
     92 H39       -14.2803  -21.4679   11.3856 H           1 SU3       0.0617
     93 H40       -12.8915  -19.1153    8.8789 H           1 SU3       0.0236
     94 H41       -14.6269  -19.2751    9.1913 H           1 SU3       0.0236
     95 H42       -13.5869  -20.7068    9.1596 H           1 SU3       0.0236
     96 H43       -11.7016  -19.8339   12.3793 H           1 SU3       0.0236
     97 H44       -11.1960  -19.4018   10.7417 H           1 SU3       0.0236
     98 H45       -11.7984  -21.0259   11.0751 H           1 SU3       0.0236
     99 H46       -15.8784  -22.8667   15.3965 H           1 SU3       0.0237
    100 H47       -17.4073  -22.2095   16.0008 H           1 SU3       0.0237
    101 H48       -16.6993  -23.6440   16.7525 H           1 SU3       0.0237
    102 H49       -13.8326  -21.9744   18.4894 H           1 SU3       0.0237
    103 H50       -13.6814  -22.5807   16.8312 H           1 SU3       0.0237
    104 H51       -14.5654  -23.5089   18.0497 H           1 SU3       0.0237
    105 H52       -17.4114  -18.1886   18.0369 H           1 SU3       0.0553
    106 H53       -16.6737  -17.7135   16.4793 H           1 SU3       0.0553
@<TRIPOS>BOND
     1     1     3   2
     2     1     4   1
     3    21     1  am
     4     4     2   1
     5     2     7  am
     6     2    52   1
     7     4     5   1
     8     5     6   1
     9     6    52   1
    10     6    53   1
    11     7     8   2
    12     7     9   1
    13     9    10   1
    14     9    13   1
    15    10    11  am
    16    11    12   1
    17    11    14   2
    18    12    47   1
    19    13    20   1
    20    13    50   1
    21    13    51   1
    22    15    16   2
    23    15    17  am
    24    53    15   1
    25    17    26   1
    26    17    29   1
    27    18    19   1
    28    24    18   1
    29    22    21   1
    30    22    23   1
    31    22    24   1
    32    22    25   1
    33    23    35  am
    34    23    36   2
    35    24    25   1
    36    26    27   2
    37    27    28  ar
    38    27    30  ar
    39    28    29   2
    40    28    33  ar
    41    30    31  ar
    42    31    32  ar
    43    32    33  ar
    44    33    34   1
    45    34    43   1
    46    35    37  am
    47    37    38   1
    48    37    39   2
    49    37    40   2
    50    38    41   1
    51    38    42   1
    52    41    42   1
    53    43    44   1
    54    44    45   1
    55    45    46   1
    56    46    47   1
    57    46    48   1
    58    46    49   1
    59     4    54   1
    60     5    55   1
    61     5    56   1
    62     6    57   1
    63     9    58   1
    64    10    59   1
    65    18    60   1
    66    18    61   1
    67    19    62   1
    68    19    63   1
    69    19    64   1
    70    20    65   1
    71    20    66   1
    72    20    67   1
    73    21    68   1
    74    24    69   1
    75    25    70   1
    76    25    71   1
    77    26    72   1
    78    29    73   1
    79    30    74   1
    80    31    75   1
    81    32    76   1
    82    34    77   1
    83    34    78   1
    84    35    79   1
    85    38    80   1
    86    41    81   1
    87    41    82   1
    88    42    83   1
    89    42    84   1
    90    43    85   1
    91    43    86   1
    92    44    87   1
    93    44    88   1
    94    45    89   1
    95    45    90   1
    96    47    91   1
    97    47    92   1
    98    48    93   1
    99    48    94   1
   100    48    95   1
   101    49    96   1
   102    49    97   1
   103    49    98   1
   104    50    99   1
   105    50   100   1
   106    50   101   1
   107    51   102   1
   108    51   103   1
   109    51   104   1
   110    52   105   1
   111    52   106   1
@<TRIPOS>SUBSTRUCTURE
     1  SU3      1

