@<TRIPOS>MOLECULE
3su3_ligand_038
   106   111
SMALL
GAST_HUCK
****
This file was generated by PARSER (from files_GN.cpp)

@<TRIPOS>ATOM
      1 C         -11.2112   -7.1898   10.5963 C.2         1 SU3       0.2013
      2 N         -13.0045   -5.9939    9.4200 N.am        1 SU3      -0.2469
      3 O         -10.9353   -8.3109   11.0005 O.2         1 SU3      -0.3947
      4 CA        -12.0231   -7.0578    9.3830 C.3         1 SU3       0.1363
      5 CB        -11.1314   -6.7497    8.1532 C.3         1 SU3       0.0206
      6 CG        -12.0363   -5.8938    7.2570 C.3         1 SU3       0.1158
      7 CAF       -13.9570   -5.8727   10.3661 C.2         1 SU3       0.2070
      8 OAG       -14.0973   -6.7863   11.1727 O.2         1 SU3      -0.3942
      9 CAH       -14.8406   -4.7045   10.5579 C.3         1 SU3       0.1378
     10 NAI       -16.1830   -5.1744   10.3481 N.am        1 SU3      -0.2407
     11 CAJ       -17.1367   -4.6434    9.5576 C.2         1 SU3       0.3218
     12 OAK       -18.3721   -5.1941    9.6646 O.3         1 SU3      -0.2633
     13 CAL       -14.6940   -3.9294   11.9468 C.3         1 SU3       0.0025
     14 OAM       -16.8984   -3.5696    8.7617 O.2         1 SU3      -0.3774
     15 CAO       -12.6634   -7.4259    5.3440 C.2         1 SU3       0.4317
     16 OAP       -11.4148   -7.4189    4.8177 O.2         1 SU3      -0.3166
     17 NAQ       -13.6603   -8.1433    4.7679 N.am        1 SU3      -0.2080
     18 CAR        -7.7586   -7.2180   13.4706 C.3         1 SU3      -0.0516
     19 CAS        -6.3675   -7.7536   13.0634 C.3         1 SU3      -0.0651
     20 CAT       -14.8341   -2.3865   11.7093 C.3         1 SU3      -0.0558
     21 NAV       -10.7891   -6.1058   11.2349 N.am        1 SU3      -0.2737
     22 CAX        -9.9732   -6.0801   12.4150 C.3         1 SU3       0.1374
     23 CAY       -10.6621   -6.1620   13.6985 C.2         1 SU3       0.2444
     24 CAZ        -8.5230   -6.6041   12.2654 C.3         1 SU3      -0.0066
     25 CBA        -8.7915   -5.0924   12.2652 C.3         1 SU3      -0.0152
     26 CBB       -13.5638   -8.9030    3.6528 C.2         1 SU3       0.0383
     27 CBC       -14.7981   -9.4884    3.4000 C.ar        1 SU3      -0.0374
     28 CBD       -15.6723   -9.0691    4.4013 C.ar        1 SU3      -0.0293
     29 CBE       -14.9326   -8.2256    5.2260 C.2         1 SU3       0.0366
     30 CBF       -15.2220  -10.3524    2.3754 C.ar        1 SU3      -0.0689
     31 CBG       -16.5604  -10.7893    2.3777 C.ar        1 SU3      -0.0688
     32 CBH       -17.4489  -10.3682    3.3909 C.ar        1 SU3      -0.0606
     33 CBI       -17.0216   -9.5004    4.4301 C.ar        1 SU3      -0.0432
     34 CBJ       -17.9767   -9.0682    5.4862 C.3         1 SU3      -0.0194
     35 NBK       -11.5547   -7.1212   13.8753 N.am        1 SU3      -0.1552
     36 OBL       -10.5169   -5.2677   14.5256 O.2         1 SU3      -0.3404
     37 SBM       -12.6489   -7.2366   15.1571 S.o2        1 SU3       0.0645
     38 CBN       -11.9752   -7.0651   16.8245 C.3         1 SU3       0.1004
     39 OBO       -13.9691   -6.3899   14.9071 O.2         1 SU3      -0.1503
     40 OBP       -13.1496   -8.7452   15.1082 O.2         1 SU3      -0.1503
     41 CBQ       -11.9147   -5.6589   17.4287 C.3         1 SU3      -0.0268
     42 CBR       -12.9254   -6.6789   17.9707 C.3         1 SU3      -0.0268
     43 CBS       -18.9229   -7.9441    4.9834 C.3         1 SU3      -0.0433
     44 CBT       -19.9381   -7.4401    6.0480 C.3         1 SU3      -0.0507
     45 CBU       -19.3464   -6.4378    7.0853 C.3         1 SU3      -0.0453
     46 CBV       -20.2930   -5.9657    8.2537 C.3         1 SU3      -0.0072
     47 CBW       -19.5988   -4.7941    9.0319 C.3         1 SU3       0.0824
     48 CBX       -21.6551   -5.4264    7.7055 C.3         1 SU3      -0.0574
     49 CBY       -20.5762   -7.1398    9.2481 C.3         1 SU3      -0.0574
     50 CBZ       -15.7806   -4.3578   12.9926 C.3         1 SU3      -0.0558
     51 CCA       -13.2914   -4.1547   12.6013 C.3         1 SU3      -0.0558
     52 CD1       -12.8733   -5.1198    8.2890 C.3         1 SU3       0.0677
     53 OD2       -12.9232   -6.6959    6.4622 O.3         1 SU3      -0.2338
     54 H1        -12.5566   -7.9974    9.1890 H           1 SU3       0.0803
     55 H2        -10.8011   -7.6619    7.6505 H           1 SU3       0.0342
     56 H3        -10.2480   -6.1605    8.4193 H           1 SU3       0.0342
     57 H4        -11.4684   -5.2088    6.6182 H           1 SU3       0.0673
     58 H5        -14.6128   -3.9770    9.7819 H           1 SU3       0.0805
     59 H6        -16.4612   -5.9236   10.9033 H           1 SU3       0.1899
     60 H7         -7.6351   -6.4849   14.2713 H           1 SU3       0.0265
     61 H8         -8.3489   -8.0489   13.8575 H           1 SU3       0.0265
     62 H9         -5.8747   -8.1917   13.9349 H           1 SU3       0.0230
     63 H10        -5.7440   -6.9418   12.6780 H           1 SU3       0.0230
     64 H11        -6.4669   -8.5258   12.2942 H           1 SU3       0.0230
     65 H12       -14.8093   -1.8345   12.6508 H           1 SU3       0.0237
     66 H13       -15.7714   -2.1576   11.2028 H           1 SU3       0.0237
     67 H14       -14.0153   -2.0189   11.0824 H           1 SU3       0.0237
     68 H15       -11.0489   -5.2435   10.8713 H           1 SU3       0.1839
     69 H16        -8.2810   -6.9992   11.2734 H           1 SU3       0.0312
     70 H17        -8.4543   -4.5529   13.1547 H           1 SU3       0.0279
     71 H18        -8.6597   -4.6079   11.2944 H           1 SU3       0.0279
     72 H19       -12.7263   -9.0350    3.0803 H           1 SU3       0.0373
     73 H20       -15.2962   -7.7470    6.0531 H           1 SU3       0.0361
     74 H21       -14.5743  -10.6542    1.6450 H           1 SU3       0.0557
     75 H22       -16.8900  -11.4177    1.6407 H           1 SU3       0.0599
     76 H23       -18.4150  -10.7039    3.3683 H           1 SU3       0.0557
     77 H24       -17.4368   -8.7197    6.3666 H           1 SU3       0.0426
     78 H25       -18.5694   -9.9301    5.8057 H           1 SU3       0.0426
     79 H26       -11.6538   -7.7741   13.1653 H           1 SU3       0.2148
     80 H27       -11.1826   -7.7497   17.1241 H           1 SU3       0.0559
     81 H28       -12.3401   -4.8433   16.8426 H           1 SU3       0.0285
     82 H29       -11.0662   -5.4558   18.0791 H           1 SU3       0.0285
     83 H30       -12.6829   -7.0553   18.9694 H           1 SU3       0.0285
     84 H31       -13.9708   -6.4624   17.7290 H           1 SU3       0.0285
     85 H32       -19.4920   -8.3316    4.1324 H           1 SU3       0.0287
     86 H33       -18.3288   -7.0993    4.6218 H           1 SU3       0.0287
     87 H34       -20.3717   -8.3027    6.5572 H           1 SU3       0.0267
     88 H35       -20.7449   -6.9377    5.5086 H           1 SU3       0.0267
     89 H36       -19.0158   -5.5585    6.5250 H           1 SU3       0.0271
     90 H37       -18.4518   -6.8843    7.5248 H           1 SU3       0.0271
     91 H38       -19.4269   -3.9484    8.3597 H           1 SU3       0.0617
     92 H39       -20.2557   -4.4396    9.8303 H           1 SU3       0.0617
     93 H40       -22.2392   -6.2227    7.2422 H           1 SU3       0.0236
     94 H41       -21.4882   -4.6451    6.9612 H           1 SU3       0.0236
     95 H42       -22.2602   -5.0052    8.5115 H           1 SU3       0.0236
     96 H43       -19.6444   -7.5665    9.6245 H           1 SU3       0.0236
     97 H44       -21.1424   -7.9381    8.7678 H           1 SU3       0.0236
     98 H45       -21.1578   -6.7904   10.1036 H           1 SU3       0.0236
     99 H46       -15.7781   -5.4399   13.1279 H           1 SU3       0.0237
    100 H47       -16.7808   -4.0650   12.6629 H           1 SU3       0.0237
    101 H48       -15.6055   -3.8901   13.9631 H           1 SU3       0.0237
    102 H49       -12.4915   -3.8839   11.9083 H           1 SU3       0.0237
    103 H50       -13.1737   -5.2003   12.8799 H           1 SU3       0.0237
    104 H51       -13.1705   -3.5667   13.5092 H           1 SU3       0.0237
    105 H52       -12.3620   -4.2041    8.5951 H           1 SU3       0.0553
    106 H53       -13.8360   -4.8603    7.8378 H           1 SU3       0.0553
@<TRIPOS>BOND
     1     1     3   2
     2     1     4   1
     3    21     1  am
     4     4     2   1
     5     2     7  am
     6     2    52   1
     7     4     5   1
     8     5     6   1
     9     6    52   1
    10     6    53   1
    11     7     8   2
    12     7     9   1
    13     9    10   1
    14     9    13   1
    15    10    11  am
    16    11    12   1
    17    11    14   2
    18    12    47   1
    19    13    20   1
    20    13    50   1
    21    13    51   1
    22    15    16   2
    23    15    17  am
    24    53    15   1
    25    17    26   1
    26    17    29   1
    27    18    19   1
    28    24    18   1
    29    22    21   1
    30    22    23   1
    31    22    24   1
    32    22    25   1
    33    23    35  am
    34    23    36   2
    35    24    25   1
    36    26    27   2
    37    27    28  ar
    38    27    30  ar
    39    28    29   2
    40    28    33  ar
    41    30    31  ar
    42    31    32  ar
    43    32    33  ar
    44    33    34   1
    45    34    43   1
    46    35    37  am
    47    37    38   1
    48    37    39   2
    49    37    40   2
    50    38    41   1
    51    38    42   1
    52    41    42   1
    53    43    44   1
    54    44    45   1
    55    45    46   1
    56    46    47   1
    57    46    48   1
    58    46    49   1
    59     4    54   1
    60     5    55   1
    61     5    56   1
    62     6    57   1
    63     9    58   1
    64    10    59   1
    65    18    60   1
    66    18    61   1
    67    19    62   1
    68    19    63   1
    69    19    64   1
    70    20    65   1
    71    20    66   1
    72    20    67   1
    73    21    68   1
    74    24    69   1
    75    25    70   1
    76    25    71   1
    77    26    72   1
    78    29    73   1
    79    30    74   1
    80    31    75   1
    81    32    76   1
    82    34    77   1
    83    34    78   1
    84    35    79   1
    85    38    80   1
    86    41    81   1
    87    41    82   1
    88    42    83   1
    89    42    84   1
    90    43    85   1
    91    43    86   1
    92    44    87   1
    93    44    88   1
    94    45    89   1
    95    45    90   1
    96    47    91   1
    97    47    92   1
    98    48    93   1
    99    48    94   1
   100    48    95   1
   101    49    96   1
   102    49    97   1
   103    49    98   1
   104    50    99   1
   105    50   100   1
   106    50   101   1
   107    51   102   1
   108    51   103   1
   109    51   104   1
   110    52   105   1
   111    52   106   1
@<TRIPOS>SUBSTRUCTURE
     1  SU3      1

