@<TRIPOS>MOLECULE
3su3_ligand_062
   106   111
SMALL
GAST_HUCK
****
This file was generated by PARSER (from files_GN.cpp)

@<TRIPOS>ATOM
      1 C         -10.9694   -6.9120   10.9093 C.2         1 SU3       0.2013
      2 N         -12.9559   -7.1104    9.5259 N.am        1 SU3      -0.2469
      3 O         -10.7477   -5.7638   10.5414 O.2         1 SU3      -0.3947
      4 CA        -11.7755   -7.7757   10.0419 C.3         1 SU3       0.1363
      5 CB        -10.9756   -8.2264    8.7895 C.3         1 SU3       0.0206
      6 CG        -12.0000   -8.1781    7.6445 C.3         1 SU3       0.1158
      7 CAF       -13.9356   -6.6146   10.3046 C.2         1 SU3       0.2070
      8 OAG       -13.9547   -6.9385   11.4873 O.2         1 SU3      -0.3942
      9 CAH       -14.9777   -5.6656    9.8737 C.3         1 SU3       0.1378
     10 NAI       -16.2388   -6.3505    9.9545 N.am        1 SU3      -0.2407
     11 CAJ       -17.1800   -6.4438    8.9897 C.2         1 SU3       0.3218
     12 OAK       -18.3768   -6.9631    9.3743 O.3         1 SU3      -0.2633
     13 CAL       -15.0231   -4.2803   10.6583 C.3         1 SU3       0.0025
     14 OAM       -16.9935   -5.9460    7.7448 O.2         1 SU3      -0.3774
     15 CAO       -12.3575  -10.6034    7.0414 C.2         1 SU3       0.4317
     16 OAP       -11.0953  -10.7578    6.5749 O.2         1 SU3      -0.3166
     17 NAQ       -13.2442  -11.6324    7.0051 N.am        1 SU3      -0.2080
     18 CAR        -7.6096   -7.3358   14.5762 C.3         1 SU3      -0.0516
     19 CAS        -6.4350   -8.3384   14.5555 C.3         1 SU3      -0.0651
     20 CAT       -15.7607   -3.2086    9.7842 C.3         1 SU3      -0.0558
     21 NAV       -10.4828   -7.3578   12.0589 N.am        1 SU3      -0.2737
     22 CAX        -9.7103   -6.5954   13.0040 C.3         1 SU3       0.1374
     23 CAY       -10.4250   -5.9413   14.1047 C.2         1 SU3       0.2444
     24 CAZ        -8.3150   -7.2552   13.1941 C.3         1 SU3      -0.0066
     25 CBA        -8.4305   -5.8930   12.4887 C.3         1 SU3      -0.0152
     26 CBB       -13.0121  -12.8715    6.5186 C.2         1 SU3       0.0383
     27 CBC       -14.1745  -13.6246    6.6422 C.ar        1 SU3      -0.0374
     28 CBD       -15.1372  -12.8137    7.2354 C.ar        1 SU3      -0.0293
     29 CBE       -14.5231  -11.5790    7.4428 C.2         1 SU3       0.0366
     30 CBF       -14.4628  -14.9503    6.2704 C.ar        1 SU3      -0.0689
     31 CBG       -15.7594  -15.4454    6.5103 C.ar        1 SU3      -0.0688
     32 CBH       -16.7377  -14.6269    7.1136 C.ar        1 SU3      -0.0606
     33 CBI       -16.4462  -13.2914    7.4955 C.ar        1 SU3      -0.0432
     34 CBJ       -17.4955  -12.4439    8.1234 C.3         1 SU3      -0.0194
     35 NBK       -11.7160   -5.6672   13.9672 N.am        1 SU3      -0.1552
     36 OBL        -9.8381   -5.6793   15.1502 O.2         1 SU3      -0.3404
     37 SBM       -12.7276   -5.0976   15.1920 S.o2        1 SU3       0.0645
     38 CBN       -12.3537   -5.8118   16.8125 C.3         1 SU3       0.1004
     39 OBO       -12.8330   -3.5110   15.2322 O.2         1 SU3      -0.1503
     40 OBP       -14.1843   -5.5830   14.7837 O.2         1 SU3      -0.1503
     41 CBQ       -13.3340   -6.7938   17.4713 C.3         1 SU3      -0.0268
     42 CBR       -12.0520   -7.3183   16.8161 C.3         1 SU3      -0.0268
     43 CBS       -18.5047  -11.9017    7.0749 C.3         1 SU3      -0.0433
     44 CBT       -19.6045  -10.9760    7.6677 C.3         1 SU3      -0.0507
     45 CBU       -19.1391   -9.5137    7.9403 C.3         1 SU3      -0.0453
     46 CBV       -20.1711   -8.5412    8.6274 C.3         1 SU3      -0.0072
     47 CBW       -19.5879   -7.0862    8.6153 C.3         1 SU3       0.0824
     48 CBX       -21.5293   -8.5117    7.8519 C.3         1 SU3      -0.0574
     49 CBY       -20.4428   -8.9675   10.1075 C.3         1 SU3      -0.0574
     50 CBZ       -15.7948   -4.3834   12.0194 C.3         1 SU3      -0.0558
     51 CCA       -13.5859   -3.7264   10.9439 C.3         1 SU3      -0.0558
     52 CD1       -12.9501   -7.0540    8.0912 C.3         1 SU3       0.0677
     53 OD2       -12.7528   -9.3955    7.5253 O.3         1 SU3      -0.2338
     54 H1        -12.0992   -8.6754   10.5812 H           1 SU3       0.0803
     55 H2        -10.5561   -9.2278    8.9184 H           1 SU3       0.0342
     56 H3        -10.1558   -7.5394    8.5529 H           1 SU3       0.0342
     57 H4        -11.5332   -7.9331    6.6853 H           1 SU3       0.0673
     58 H5        -14.7802   -5.4075    8.8318 H           1 SU3       0.0805
     59 H6        -16.4759   -6.7144   10.8213 H           1 SU3       0.1899
     60 H7         -7.2181   -6.3568   14.8729 H           1 SU3       0.0265
     61 H8         -8.3364   -7.6577   15.3274 H           1 SU3       0.0265
     62 H9         -5.9137   -8.3184   15.5139 H           1 SU3       0.0230
     63 H10        -5.7303   -8.0705   13.7619 H           1 SU3       0.0230
     64 H11        -6.8053   -9.3502   14.3788 H           1 SU3       0.0230
     65 H12       -15.8441   -2.2555   10.3125 H           1 SU3       0.0237
     66 H13       -16.7667   -3.5426    9.5275 H           1 SU3       0.0237
     67 H14       -15.2188   -3.0273    8.8534 H           1 SU3       0.0237
     68 H15       -10.6814   -8.2747   12.3020 H           1 SU3       0.1839
     69 H16        -8.0929   -8.0717   12.4949 H           1 SU3       0.0312
     70 H17        -8.0845   -5.0199   13.0482 H           1 SU3       0.0279
     71 H18        -8.2648   -5.9096   11.4084 H           1 SU3       0.0279
     72 H19       -12.1382  -13.2096    6.1103 H           1 SU3       0.0373
     73 H20       -14.9777  -10.7608    7.8531 H           1 SU3       0.0361
     74 H21       -13.7513  -15.5371    5.8306 H           1 SU3       0.0557
     75 H22       -15.9924  -16.4050    6.2427 H           1 SU3       0.0599
     76 H23       -17.6711  -15.0134    7.2753 H           1 SU3       0.0557
     77 H24       -17.0406  -11.6075    8.6540 H           1 SU3       0.0426
     78 H25       -18.0291  -13.0341    8.8739 H           1 SU3       0.0426
     79 H26       -12.1394   -5.9054   13.1236 H           1 SU3       0.2148
     80 H27       -11.6970   -5.2514   17.4797 H           1 SU3       0.0559
     81 H28       -14.2527   -7.0303   16.9351 H           1 SU3       0.0285
     82 H29       -13.3354   -6.8144   18.5597 H           1 SU3       0.0285
     83 H30       -11.3159   -7.6792   17.5340 H           1 SU3       0.0285
     84 H31       -12.2202   -7.8888   15.8999 H           1 SU3       0.0285
     85 H32       -19.0011  -12.7558    6.6049 H           1 SU3       0.0287
     86 H33       -17.9655  -11.3643    6.2896 H           1 SU3       0.0287
     87 H34       -19.9905  -11.4283    8.5824 H           1 SU3       0.0267
     88 H35       -20.4231  -10.9453    6.9449 H           1 SU3       0.0267
     89 H36       -18.8458   -9.0862    6.9762 H           1 SU3       0.0271
     90 H37       -18.2368   -9.5470    8.5561 H           1 SU3       0.0271
     91 H38       -19.4342   -6.7535    7.5849 H           1 SU3       0.0617
     92 H39       -20.3055   -6.3974    9.0690 H           1 SU3       0.0617
     93 H40       -22.0423   -9.4727    7.9141 H           1 SU3       0.0236
     94 H41       -21.3659   -8.2772    6.7976 H           1 SU3       0.0236
     95 H42       -22.2000   -7.7562    8.2686 H           1 SU3       0.0236
     96 H43       -19.5100   -9.0387   10.6713 H           1 SU3       0.0236
     97 H44       -20.9412   -9.9366   10.1562 H           1 SU3       0.0236
     98 H45       -21.0861   -8.2403   10.6083 H           1 SU3       0.0236
     99 H46       -15.3940   -5.1900   12.6262 H           1 SU3       0.0237
    100 H47       -16.8560   -4.5854   11.8569 H           1 SU3       0.0237
    101 H48       -15.7190   -3.4557   12.5914 H           1 SU3       0.0237
    102 H49       -13.0018   -3.6811   10.0223 H           1 SU3       0.0237
    103 H50       -13.0523   -4.3588   11.6551 H           1 SU3       0.0237
    104 H51       -13.6288   -2.7216   11.3693 H           1 SU3       0.0237
    105 H52       -12.5782   -6.0785    7.7617 H           1 SU3       0.0553
    106 H53       -13.9419   -7.2252    7.6603 H           1 SU3       0.0553
@<TRIPOS>BOND
     1     1     3   2
     2     1     4   1
     3    21     1  am
     4     4     2   1
     5     2     7  am
     6     2    52   1
     7     4     5   1
     8     5     6   1
     9     6    52   1
    10     6    53   1
    11     7     8   2
    12     7     9   1
    13     9    10   1
    14     9    13   1
    15    10    11  am
    16    11    12   1
    17    11    14   2
    18    12    47   1
    19    13    20   1
    20    13    50   1
    21    13    51   1
    22    15    16   2
    23    15    17  am
    24    53    15   1
    25    17    26   1
    26    17    29   1
    27    18    19   1
    28    24    18   1
    29    22    21   1
    30    22    23   1
    31    22    24   1
    32    22    25   1
    33    23    35  am
    34    23    36   2
    35    24    25   1
    36    26    27   2
    37    27    28  ar
    38    27    30  ar
    39    28    29   2
    40    28    33  ar
    41    30    31  ar
    42    31    32  ar
    43    32    33  ar
    44    33    34   1
    45    34    43   1
    46    35    37  am
    47    37    38   1
    48    37    39   2
    49    37    40   2
    50    38    41   1
    51    38    42   1
    52    41    42   1
    53    43    44   1
    54    44    45   1
    55    45    46   1
    56    46    47   1
    57    46    48   1
    58    46    49   1
    59     4    54   1
    60     5    55   1
    61     5    56   1
    62     6    57   1
    63     9    58   1
    64    10    59   1
    65    18    60   1
    66    18    61   1
    67    19    62   1
    68    19    63   1
    69    19    64   1
    70    20    65   1
    71    20    66   1
    72    20    67   1
    73    21    68   1
    74    24    69   1
    75    25    70   1
    76    25    71   1
    77    26    72   1
    78    29    73   1
    79    30    74   1
    80    31    75   1
    81    32    76   1
    82    34    77   1
    83    34    78   1
    84    35    79   1
    85    38    80   1
    86    41    81   1
    87    41    82   1
    88    42    83   1
    89    42    84   1
    90    43    85   1
    91    43    86   1
    92    44    87   1
    93    44    88   1
    94    45    89   1
    95    45    90   1
    96    47    91   1
    97    47    92   1
    98    48    93   1
    99    48    94   1
   100    48    95   1
   101    49    96   1
   102    49    97   1
   103    49    98   1
   104    50    99   1
   105    50   100   1
   106    50   101   1
   107    51   102   1
   108    51   103   1
   109    51   104   1
   110    52   105   1
   111    52   106   1
@<TRIPOS>SUBSTRUCTURE
     1  SU3      1

