@<TRIPOS>MOLECULE
3su3_ligand_091
   106   111
SMALL
GAST_HUCK
****
This file was generated by PARSER (from files_GN.cpp)

@<TRIPOS>ATOM
      1 C          -7.2220   -3.3759   11.3043 C.2         1 SU3       0.2013
      2 N          -8.2370   -5.3742   10.3404 N.am        1 SU3      -0.2469
      3 O          -6.0929   -3.6836   10.9396 O.2         1 SU3      -0.3947
      4 CA         -8.2023   -4.4505   11.4570 C.3         1 SU3       0.1363
      5 CB         -7.8639   -5.3116   12.7031 C.3         1 SU3       0.0206
      6 CG         -8.2385   -6.7348   12.2714 C.3         1 SU3       0.1158
      7 CAF        -8.5453   -5.0302    9.0739 C.2         1 SU3       0.2070
      8 OAG        -9.0320   -3.9258    8.8912 O.2         1 SU3      -0.3942
      9 CAH        -8.3324   -5.8427    7.8650 C.3         1 SU3       0.1378
     10 NAI        -9.6362   -6.1770    7.3543 N.am        1 SU3      -0.2407
     11 CAJ       -10.0783   -7.3908    6.9616 C.2         1 SU3       0.3218
     12 OAK       -11.2814   -7.4354    6.3327 O.3         1 SU3      -0.2633
     13 CAL        -7.4106   -5.1884    6.7405 C.3         1 SU3       0.0025
     14 OAM        -9.3248   -8.5075    7.0922 O.2         1 SU3      -0.3774
     15 CAO       -10.2954   -7.2161   13.6310 C.2         1 SU3       0.4317
     16 OAP        -9.6191   -7.1700   14.8042 O.2         1 SU3      -0.3166
     17 NAQ       -11.6230   -7.4851   13.6024 N.am        1 SU3      -0.2080
     18 CAR        -7.0263    1.7110   11.7260 C.3         1 SU3      -0.0516
     19 CAS        -7.3700    2.7705   12.7961 C.3         1 SU3      -0.0651
     20 CAT        -8.2052   -4.2351    5.7826 C.3         1 SU3      -0.0558
     21 NAV        -7.5372   -2.1244   11.6115 N.am        1 SU3      -0.2737
     22 CAX        -6.6771   -0.9781   11.4974 C.3         1 SU3       0.1374
     23 CAY        -5.9659   -0.7666   10.2511 C.2         1 SU3       0.2444
     24 CAZ        -7.2186    0.2625   12.2543 C.3         1 SU3      -0.0066
     25 CBA        -5.9979   -0.4943   12.7951 C.3         1 SU3      -0.0152
     26 CBB       -12.3992   -7.7515   14.6746 C.2         1 SU3       0.0383
     27 CBC       -13.6991   -7.9819   14.2375 C.ar        1 SU3      -0.0374
     28 CBD       -13.7067   -7.8379   12.8509 C.ar        1 SU3      -0.0293
     29 CBE       -12.3953   -7.5379   12.4911 C.2         1 SU3       0.0366
     30 CBF       -14.8591   -8.3138   14.9459 C.ar        1 SU3      -0.0689
     31 CBG       -16.0587   -8.4944   14.2280 C.ar        1 SU3      -0.0688
     32 CBH       -16.0751   -8.3477   12.8234 C.ar        1 SU3      -0.0606
     33 CBI       -14.8988   -8.0139   12.1051 C.ar        1 SU3      -0.0432
     34 CBJ       -14.9347   -7.8871   10.6239 C.3         1 SU3      -0.0194
     35 NBK        -4.7577   -1.2884   10.1376 N.am        1 SU3      -0.1552
     36 OBL        -6.5407   -0.2059    9.3286 O.2         1 SU3      -0.3404
     37 SBM        -3.7598   -1.2348    8.7833 S.o2        1 SU3       0.0645
     38 CBN        -2.4374   -0.0108    8.8878 C.3         1 SU3       0.1004
     39 OBO        -3.1227   -2.6867    8.6613 O.2         1 SU3      -0.1503
     40 OBP        -4.5984   -1.0590    7.4430 O.2         1 SU3      -0.1503
     41 CBQ        -2.8378    1.4333    9.2157 C.3         1 SU3      -0.0268
     42 CBR        -2.1003    0.5869   10.2616 C.3         1 SU3      -0.0268
     43 CBS       -14.9023   -9.2769    9.9321 C.3         1 SU3      -0.0433
     44 CBT       -14.8931   -9.2140    8.3789 C.3         1 SU3      -0.0507
     45 CBU       -13.5023   -8.8874    7.7548 C.3         1 SU3      -0.0453
     46 CBV       -13.4407   -8.6925    6.1933 C.3         1 SU3      -0.0072
     47 CBW       -11.9407   -8.5731    5.7549 C.3         1 SU3       0.0824
     48 CBX       -14.0587   -9.9186    5.4422 C.3         1 SU3      -0.0574
     49 CBY       -14.1973   -7.3947    5.7548 C.3         1 SU3      -0.0574
     50 CBZ        -6.2146   -4.3781    7.3538 C.3         1 SU3      -0.0558
     51 CCA        -6.7766   -6.3122    5.8494 C.3         1 SU3      -0.0558
     52 CD1        -7.9443   -6.7087   10.7630 C.3         1 SU3       0.0677
     53 OD2        -9.6308   -7.0175   12.4626 O.3         1 SU3      -0.2338
     54 H1         -9.2080   -4.0338   11.5914 H           1 SU3       0.0803
     55 H2         -8.4211   -4.9833   13.5836 H           1 SU3       0.0342
     56 H3         -6.7944   -5.2968   12.9447 H           1 SU3       0.0342
     57 H4         -7.6285   -7.4915   12.7751 H           1 SU3       0.0673
     58 H5         -7.8306   -6.7579    8.1675 H           1 SU3       0.0805
     59 H6        -10.2391   -5.4314    7.1901 H           1 SU3       0.1899
     60 H7         -6.0014    1.8740   11.3814 H           1 SU3       0.0265
     61 H8         -7.6981    1.8497   10.8752 H           1 SU3       0.0265
     62 H9         -7.2541    3.7704   12.3704 H           1 SU3       0.0230
     63 H10        -6.7038    2.6765   13.6570 H           1 SU3       0.0230
     64 H11        -8.4039    2.6558   13.1303 H           1 SU3       0.0230
     65 H12        -7.5426   -3.7741    5.0447 H           1 SU3       0.0237
     66 H13        -8.6977   -3.4359    6.3363 H           1 SU3       0.0237
     67 H14        -8.9691   -4.7867    5.2325 H           1 SU3       0.0237
     68 H15        -8.4340   -1.9653   11.9534 H           1 SU3       0.1839
     69 H16        -8.1383    0.0752   12.8159 H           1 SU3       0.0312
     70 H17        -5.0289   -0.0001   12.6830 H           1 SU3       0.0279
     71 H18        -6.1739   -1.0970   13.6889 H           1 SU3       0.0279
     72 H19       -12.0947   -7.7934   15.6492 H           1 SU3       0.0373
     73 H20       -12.0704   -7.3847   11.5318 H           1 SU3       0.0361
     74 H21       -14.8334   -8.4271   15.9597 H           1 SU3       0.0557
     75 H22       -16.9162   -8.7346   14.7290 H           1 SU3       0.0599
     76 H23       -16.9589   -8.4887   12.3273 H           1 SU3       0.0557
     77 H24       -14.0949   -7.2865   10.2750 H           1 SU3       0.0426
     78 H25       -15.8424   -7.3535   10.3294 H           1 SU3       0.0426
     79 H26        -4.4035   -1.7450   10.9160 H           1 SU3       0.2148
     80 H27        -1.5960   -0.1029    8.2018 H           1 SU3       0.0559
     81 H28        -3.8909    1.6231    9.4262 H           1 SU3       0.0285
     82 H29        -2.2405    2.2139    8.7427 H           1 SU3       0.0285
     83 H30        -1.0554    0.8533   10.4241 H           1 SU3       0.0285
     84 H31        -2.7062    0.2789   11.1144 H           1 SU3       0.0285
     85 H32       -15.7929   -9.8337   10.2402 H           1 SU3       0.0287
     86 H33       -14.0294   -9.8407   10.2748 H           1 SU3       0.0287
     87 H34       -15.6365   -8.4846    8.0523 H           1 SU3       0.0267
     88 H35       -15.2104  -10.1942    8.0129 H           1 SU3       0.0267
     89 H36       -12.8279   -9.7027    8.0319 H           1 SU3       0.0271
     90 H37       -13.1142   -7.9835    8.2282 H           1 SU3       0.0271
     91 H38       -11.4094   -9.4962    6.0015 H           1 SU3       0.0617
     92 H39       -11.8813   -8.4499    4.6708 H           1 SU3       0.0617
     93 H40       -15.1330   -9.9938    5.6229 H           1 SU3       0.0236
     94 H41       -13.5893  -10.8488    5.7723 H           1 SU3       0.0236
     95 H42       -13.9139   -9.8289    4.3622 H           1 SU3       0.0236
     96 H43       -13.8165   -6.5222    6.2905 H           1 SU3       0.0236
     97 H44       -15.2676   -7.4722    5.9522 H           1 SU3       0.0236
     98 H45       -14.0711   -7.2160    4.6840 H           1 SU3       0.0236
     99 H46        -5.6463   -4.9941    8.0556 H           1 SU3       0.0237
    100 H47        -6.5671   -3.4906    7.8855 H           1 SU3       0.0237
    101 H48        -5.5277   -4.0337    6.5725 H           1 SU3       0.0237
    102 H49        -7.5498   -6.9207    5.3804 H           1 SU3       0.0237
    103 H50        -6.1429   -6.9705    6.4467 H           1 SU3       0.0237
    104 H51        -6.1552   -5.8882    5.0564 H           1 SU3       0.0237
    105 H52        -6.8864   -6.9183   10.5795 H           1 SU3       0.0553
    106 H53        -8.5679   -7.4582   10.2644 H           1 SU3       0.0553
@<TRIPOS>BOND
     1     1     3   2
     2     1     4   1
     3    21     1  am
     4     4     2   1
     5     2     7  am
     6     2    52   1
     7     4     5   1
     8     5     6   1
     9     6    52   1
    10     6    53   1
    11     7     8   2
    12     7     9   1
    13     9    10   1
    14     9    13   1
    15    10    11  am
    16    11    12   1
    17    11    14   2
    18    12    47   1
    19    13    20   1
    20    13    50   1
    21    13    51   1
    22    15    16   2
    23    15    17  am
    24    53    15   1
    25    17    26   1
    26    17    29   1
    27    18    19   1
    28    24    18   1
    29    22    21   1
    30    22    23   1
    31    22    24   1
    32    22    25   1
    33    23    35  am
    34    23    36   2
    35    24    25   1
    36    26    27   2
    37    27    28  ar
    38    27    30  ar
    39    28    29   2
    40    28    33  ar
    41    30    31  ar
    42    31    32  ar
    43    32    33  ar
    44    33    34   1
    45    34    43   1
    46    35    37  am
    47    37    38   1
    48    37    39   2
    49    37    40   2
    50    38    41   1
    51    38    42   1
    52    41    42   1
    53    43    44   1
    54    44    45   1
    55    45    46   1
    56    46    47   1
    57    46    48   1
    58    46    49   1
    59     4    54   1
    60     5    55   1
    61     5    56   1
    62     6    57   1
    63     9    58   1
    64    10    59   1
    65    18    60   1
    66    18    61   1
    67    19    62   1
    68    19    63   1
    69    19    64   1
    70    20    65   1
    71    20    66   1
    72    20    67   1
    73    21    68   1
    74    24    69   1
    75    25    70   1
    76    25    71   1
    77    26    72   1
    78    29    73   1
    79    30    74   1
    80    31    75   1
    81    32    76   1
    82    34    77   1
    83    34    78   1
    84    35    79   1
    85    38    80   1
    86    41    81   1
    87    41    82   1
    88    42    83   1
    89    42    84   1
    90    43    85   1
    91    43    86   1
    92    44    87   1
    93    44    88   1
    94    45    89   1
    95    45    90   1
    96    47    91   1
    97    47    92   1
    98    48    93   1
    99    48    94   1
   100    48    95   1
   101    49    96   1
   102    49    97   1
   103    49    98   1
   104    50    99   1
   105    50   100   1
   106    50   101   1
   107    51   102   1
   108    51   103   1
   109    51   104   1
   110    52   105   1
   111    52   106   1
@<TRIPOS>SUBSTRUCTURE
     1  SU3      1

