@<TRIPOS>MOLECULE
3su3_ligand_045
   106   111
SMALL
GAST_HUCK
****
This file was generated by PARSER (from files_GN.cpp)

@<TRIPOS>ATOM
      1 C         -14.0367   -9.3679   13.8107 C.2         1 SU3       0.2013
      2 N         -16.2090  -10.4403   13.7884 N.am        1 SU3      -0.2469
      3 O         -14.1539   -8.9382   12.6685 O.2         1 SU3      -0.3947
      4 CA        -14.8119  -10.5569   14.1487 C.3         1 SU3       0.1363
      5 CB        -14.2778  -11.7912   13.3741 C.3         1 SU3       0.0206
      6 CG        -15.5455  -12.5923   13.0495 C.3         1 SU3       0.1158
      7 CAF       -17.0223   -9.4662   14.2414 C.2         1 SU3       0.2070
      8 OAG       -16.6122   -8.7382   15.1427 O.2         1 SU3      -0.3942
      9 CAH       -18.3521   -9.1409   13.6967 C.3         1 SU3       0.1378
     10 NAI       -19.3145   -9.4335   14.7246 N.am        1 SU3      -0.2407
     11 CAJ       -20.3852  -10.2526   14.6346 C.2         1 SU3       0.3218
     12 OAK       -21.2332  -10.2672   15.6937 O.3         1 SU3      -0.2633
     13 CAL       -18.5293   -7.6666   13.1233 C.3         1 SU3       0.0025
     14 OAM       -20.6536  -10.9596   13.5129 O.2         1 SU3      -0.3774
     15 CAO       -15.3304  -14.6157   14.5359 C.2         1 SU3       0.4317
     16 OAP       -14.2570  -15.0963   13.8643 O.2         1 SU3      -0.3166
     17 NAQ       -15.8243  -15.2700   15.6176 N.am        1 SU3      -0.2080
     18 CAR       -12.2569   -5.0590   15.4430 C.3         1 SU3      -0.0516
     19 CAS       -11.9862   -4.3476   16.7812 C.3         1 SU3      -0.0651
     20 CAT       -18.8802   -6.6103   14.2282 C.3         1 SU3      -0.0558
     21 NAV       -13.2363   -8.8058   14.7101 N.am        1 SU3      -0.2737
     22 CAX       -12.4032   -7.6414   14.5591 C.3         1 SU3       0.1374
     23 CAY       -11.9956   -7.1621   13.2508 C.2         1 SU3       0.2444
     24 CAZ       -12.5844   -6.5622   15.6579 C.3         1 SU3      -0.0066
     25 CBA       -11.3693   -7.5001   15.7000 C.3         1 SU3      -0.0152
     26 CBB       -15.3466  -16.4167   16.1499 C.2         1 SU3       0.0383
     27 CBC       -16.1177  -16.7504   17.2588 C.ar        1 SU3      -0.0374
     28 CBD       -17.0917  -15.7640   17.3981 C.ar        1 SU3      -0.0293
     29 CBE       -16.8830  -14.8656   16.3573 C.2         1 SU3       0.0366
     30 CBF       -16.0457  -17.8354   18.1461 C.ar        1 SU3      -0.0689
     31 CBG       -16.9906  -17.9148   19.1875 C.ar        1 SU3      -0.0688
     32 CBH       -17.9815  -16.9158   19.3318 C.ar        1 SU3      -0.0606
     33 CBI       -18.0461  -15.8138   18.4445 C.ar        1 SU3      -0.0432
     34 CBJ       -19.0997  -14.7752   18.6019 C.3         1 SU3      -0.0194
     35 NBK       -10.8675   -7.6070   12.7281 N.am        1 SU3      -0.1552
     36 OBL       -12.7675   -6.4336   12.6359 O.2         1 SU3      -0.3404
     37 SBM       -10.2789   -7.2278   11.1964 S.o2        1 SU3       0.0645
     38 CBN        -8.9038   -6.0561   11.1575 C.3         1 SU3       0.1004
     39 OBO        -9.8105   -8.6016   10.5466 O.2         1 SU3      -0.1503
     40 OBP       -11.4469   -6.7549   10.2261 O.2         1 SU3      -0.1503
     41 CBQ        -9.0207   -4.7510   11.9597 C.3         1 SU3      -0.0268
     42 CBR        -8.1054   -5.8767   12.4583 C.3         1 SU3      -0.0268
     43 CBS       -20.4367  -15.2148   17.9467 C.3         1 SU3      -0.0433
     44 CBT       -21.5730  -14.1598   18.0493 C.3         1 SU3      -0.0507
     45 CBU       -21.4994  -13.0138   16.9955 C.3         1 SU3      -0.0453
     46 CBV       -22.5590  -11.8536   17.1203 C.3         1 SU3      -0.0072
     47 CBW       -22.4859  -10.9537   15.8362 C.3         1 SU3       0.0824
     48 CBX       -24.0147  -12.4201   17.2192 C.3         1 SU3      -0.0574
     49 CBY       -22.2762  -10.9667   18.3788 C.3         1 SU3      -0.0574
     50 CBZ       -17.2368   -7.1865   12.3778 C.3         1 SU3      -0.0558
     51 CCA       -19.6998   -7.6531   12.0790 C.3         1 SU3      -0.0558
     52 CD1       -16.6106  -11.4928   12.8993 C.3         1 SU3       0.0677
     53 OD2       -15.9171  -13.4586   14.1295 O.3         1 SU3      -0.2338
     54 H1        -14.7547  -10.7623   15.2244 H           1 SU3       0.0803
     55 H2        -13.5680  -12.3613   13.9775 H           1 SU3       0.0342
     56 H3        -13.7872  -11.5235   12.4293 H           1 SU3       0.0342
     57 H4        -15.4424  -13.1678   12.1252 H           1 SU3       0.0673
     58 H5        -18.5345   -9.8024   12.8523 H           1 SU3       0.0805
     59 H6        -19.2174   -8.9418   15.5600 H           1 SU3       0.1899
     60 H7        -11.3828   -4.9263   14.7996 H           1 SU3       0.0265
     61 H8        -13.1056   -4.5810   14.9512 H           1 SU3       0.0265
     62 H9        -11.6683   -3.3272   16.5803 H           1 SU3       0.0230
     63 H10       -11.1950   -4.8549   17.3379 H           1 SU3       0.0230
     64 H11       -12.8933   -4.3205   17.3875 H           1 SU3       0.0230
     65 H12       -18.9752   -5.6084   13.7979 H           1 SU3       0.0237
     66 H13       -18.1101   -6.5718   15.0011 H           1 SU3       0.0237
     67 H14       -19.8324   -6.8464   14.7097 H           1 SU3       0.0237
     68 H15       -13.2014   -9.2327   15.5823 H           1 SU3       0.1839
     69 H16       -13.3429   -6.8009   16.4065 H           1 SU3       0.0312
     70 H17       -10.3994   -7.0786   15.4238 H           1 SU3       0.0279
     71 H18       -11.3914   -8.2579   16.4833 H           1 SU3       0.0279
     72 H19       -14.5497  -16.9598   15.8077 H           1 SU3       0.0373
     73 H20       -17.4452  -14.0290   16.1831 H           1 SU3       0.0361
     74 H21       -15.3280  -18.5554   18.0362 H           1 SU3       0.0557
     75 H22       -16.9589  -18.6984   19.8430 H           1 SU3       0.0599
     76 H23       -18.6554  -17.0006   20.0971 H           1 SU3       0.0557
     77 H24       -18.7704  -13.8323   18.1639 H           1 SU3       0.0426
     78 H25       -19.2608  -14.5825   19.6668 H           1 SU3       0.0426
     79 H26       -10.3299   -8.1948   13.2796 H           1 SU3       0.2148
     80 H27        -8.3185   -5.9776   10.2378 H           1 SU3       0.0559
     81 H28        -9.9346   -4.5980   12.5330 H           1 SU3       0.0285
     82 H29        -8.4916   -3.8831   11.5648 H           1 SU3       0.0285
     83 H30        -7.0359   -5.6933   12.3402 H           1 SU3       0.0285
     84 H31        -8.4613   -6.3884   13.3533 H           1 SU3       0.0285
     85 H32       -20.7760  -16.1265   18.4486 H           1 SU3       0.0287
     86 H33       -20.2695  -15.4629   16.8947 H           1 SU3       0.0287
     87 H34       -21.5720  -13.7416   19.0550 H           1 SU3       0.0267
     88 H35       -22.5187  -14.6908   17.9142 H           1 SU3       0.0267
     89 H36       -21.6051  -13.4815   16.0121 H           1 SU3       0.0271
     90 H37       -20.5000  -12.5740   17.0293 H           1 SU3       0.0271
     91 H38       -22.7017  -11.5537   14.9473 H           1 SU3       0.0617
     92 H39       -23.2538  -10.1764   15.8877 H           1 SU3       0.0617
     93 H40       -24.1626  -12.9673   18.1518 H           1 SU3       0.0236
     94 H41       -24.2220  -13.0966   16.3874 H           1 SU3       0.0236
     95 H42       -24.7515  -11.6143   17.1946 H           1 SU3       0.0236
     96 H43       -21.2557  -10.5785   18.3620 H           1 SU3       0.0236
     97 H44       -22.4060  -11.5342   19.3016 H           1 SU3       0.0236
     98 H45       -22.9601  -10.1152   18.4142 H           1 SU3       0.0236
     99 H46       -16.9180   -7.9314   11.6458 H           1 SU3       0.0237
    100 H47       -16.4138   -7.0263   13.0792 H           1 SU3       0.0237
    101 H48       -17.4036   -6.2430   11.8521 H           1 SU3       0.0237
    102 H49       -20.6298   -8.0014   12.5307 H           1 SU3       0.0237
    103 H50       -19.4724   -8.3030   11.2310 H           1 SU3       0.0237
    104 H51       -19.8722   -6.6480   11.6867 H           1 SU3       0.0237
    105 H52       -16.6388  -11.1221   11.8712 H           1 SU3       0.0553
    106 H53       -17.5896  -11.8979   13.1649 H           1 SU3       0.0553
@<TRIPOS>BOND
     1     1     3   2
     2     1     4   1
     3    21     1  am
     4     4     2   1
     5     2     7  am
     6     2    52   1
     7     4     5   1
     8     5     6   1
     9     6    52   1
    10     6    53   1
    11     7     8   2
    12     7     9   1
    13     9    10   1
    14     9    13   1
    15    10    11  am
    16    11    12   1
    17    11    14   2
    18    12    47   1
    19    13    20   1
    20    13    50   1
    21    13    51   1
    22    15    16   2
    23    15    17  am
    24    53    15   1
    25    17    26   1
    26    17    29   1
    27    18    19   1
    28    24    18   1
    29    22    21   1
    30    22    23   1
    31    22    24   1
    32    22    25   1
    33    23    35  am
    34    23    36   2
    35    24    25   1
    36    26    27   2
    37    27    28  ar
    38    27    30  ar
    39    28    29   2
    40    28    33  ar
    41    30    31  ar
    42    31    32  ar
    43    32    33  ar
    44    33    34   1
    45    34    43   1
    46    35    37  am
    47    37    38   1
    48    37    39   2
    49    37    40   2
    50    38    41   1
    51    38    42   1
    52    41    42   1
    53    43    44   1
    54    44    45   1
    55    45    46   1
    56    46    47   1
    57    46    48   1
    58    46    49   1
    59     4    54   1
    60     5    55   1
    61     5    56   1
    62     6    57   1
    63     9    58   1
    64    10    59   1
    65    18    60   1
    66    18    61   1
    67    19    62   1
    68    19    63   1
    69    19    64   1
    70    20    65   1
    71    20    66   1
    72    20    67   1
    73    21    68   1
    74    24    69   1
    75    25    70   1
    76    25    71   1
    77    26    72   1
    78    29    73   1
    79    30    74   1
    80    31    75   1
    81    32    76   1
    82    34    77   1
    83    34    78   1
    84    35    79   1
    85    38    80   1
    86    41    81   1
    87    41    82   1
    88    42    83   1
    89    42    84   1
    90    43    85   1
    91    43    86   1
    92    44    87   1
    93    44    88   1
    94    45    89   1
    95    45    90   1
    96    47    91   1
    97    47    92   1
    98    48    93   1
    99    48    94   1
   100    48    95   1
   101    49    96   1
   102    49    97   1
   103    49    98   1
   104    50    99   1
   105    50   100   1
   106    50   101   1
   107    51   102   1
   108    51   103   1
   109    51   104   1
   110    52   105   1
   111    52   106   1
@<TRIPOS>SUBSTRUCTURE
     1  SU3      1

