@<TRIPOS>MOLECULE
3su3_ligand_053
   106   111
SMALL
GAST_HUCK
****
This file was generated by PARSER (from files_GN.cpp)

@<TRIPOS>ATOM
      1 C          -6.6775   -4.1028   10.1877 C.2         1 SU3       0.2013
      2 N          -8.5610   -5.6704   10.0616 N.am        1 SU3      -0.2469
      3 O          -5.7640   -4.8678    9.9187 O.2         1 SU3      -0.3947
      4 CA         -7.8985   -4.6177   10.8087 C.3         1 SU3       0.1363
      5 CB         -7.5955   -5.2185   12.2056 C.3         1 SU3       0.0206
      6 CG         -8.6144   -6.3595   12.3454 C.3         1 SU3       0.1158
      7 CAF        -9.0152   -5.5293    8.7931 C.2         1 SU3       0.2070
      8 OAG        -8.9506   -4.4167    8.2921 O.2         1 SU3      -0.3942
      9 CAH        -9.6844   -6.5595    7.9766 C.3         1 SU3       0.1378
     10 NAI       -11.0858   -6.2235    7.8901 N.am        1 SU3      -0.2407
     11 CAJ       -12.1233   -7.0523    8.1622 C.2         1 SU3       0.3218
     12 OAK       -13.3726   -6.6705    7.7859 O.3         1 SU3      -0.2633
     13 CAL        -9.0678   -6.8294    6.5311 C.3         1 SU3       0.0025
     14 OAM       -11.9208   -8.2914    8.6775 O.2         1 SU3      -0.3774
     15 CAO       -10.0971   -5.4998   14.1801 C.2         1 SU3       0.4317
     16 OAP        -9.1024   -5.5340   15.1024 O.2         1 SU3      -0.3166
     17 NAQ       -11.3257   -5.0344   14.5167 N.am        1 SU3      -0.2080
     18 CAR        -3.1700   -2.5177    7.8782 C.3         1 SU3      -0.0516
     19 CAS        -2.8958   -2.1707    6.3945 C.3         1 SU3      -0.0651
     20 CAT        -8.9976   -5.5568    5.6214 C.3         1 SU3      -0.0558
     21 NAV        -6.5686   -2.8130    9.8995 N.am        1 SU3      -0.2737
     22 CAX        -5.4172   -2.1448    9.3754 C.3         1 SU3       0.1374
     23 CAY        -4.9895   -1.0082   10.1790 C.2         1 SU3       0.2444
     24 CAZ        -4.6802   -2.7822    8.1606 C.3         1 SU3      -0.0066
     25 CBA        -5.6937   -1.6618    7.9243 C.3         1 SU3      -0.0152
     26 CBB       -11.6921   -4.5656   15.7306 C.2         1 SU3       0.0383
     27 CBC       -13.0255   -4.1718   15.6720 C.ar        1 SU3      -0.0374
     28 CBD       -13.4729   -4.4045   14.3755 C.ar        1 SU3      -0.0293
     29 CBE       -12.3889   -4.9418   13.6843 C.2         1 SU3       0.0366
     30 CBF       -13.8717   -3.6397   16.6553 C.ar        1 SU3      -0.0689
     31 CBG       -15.2100   -3.3577   16.3061 C.ar        1 SU3      -0.0688
     32 CBH       -15.6699   -3.5984   14.9965 C.ar        1 SU3      -0.0606
     33 CBI       -14.8054   -4.1105   13.9936 C.ar        1 SU3      -0.0432
     34 CBJ       -15.3014   -4.3440   12.6132 C.3         1 SU3      -0.0194
     35 NBK        -5.8736   -0.0598   10.4549 N.am        1 SU3      -0.1552
     36 OBL        -3.8161   -0.9382   10.5487 O.2         1 SU3      -0.3404
     37 SBM        -5.5441    1.4591   11.1196 S.o2        1 SU3       0.0645
     38 CBN        -6.9184    2.2251   12.0138 C.3         1 SU3       0.1004
     39 OBO        -4.3578    1.3847   12.1718 O.2         1 SU3      -0.1503
     40 OBP        -5.1072    2.4409    9.9434 O.2         1 SU3      -0.1503
     41 CBQ        -8.3579    1.8162   11.6691 C.3         1 SU3      -0.0268
     42 CBR        -7.7308    1.3696   12.9980 C.3         1 SU3      -0.0268
     43 CBS       -16.0112   -5.7186   12.4863 C.3         1 SU3      -0.0433
     44 CBT       -16.5016   -6.0515   11.0496 C.3         1 SU3      -0.0507
     45 CBU       -15.3819   -6.5371   10.0792 C.3         1 SU3      -0.0453
     46 CBV       -15.7812   -6.7583    8.5719 C.3         1 SU3      -0.0072
     47 CBW       -14.5870   -7.4476    7.8223 C.3         1 SU3       0.0824
     48 CBX       -17.0296   -7.6953    8.4490 C.3         1 SU3      -0.0574
     49 CBY       -16.1007   -5.3992    7.8681 C.3         1 SU3      -0.0574
     50 CBZ        -7.6254   -7.4114    6.6696 C.3         1 SU3      -0.0558
     51 CCA        -9.9325   -7.8970    5.7751 C.3         1 SU3      -0.0558
     52 CD1        -8.8303   -6.8115   10.8879 C.3         1 SU3       0.0677
     53 OD2        -9.8521   -5.8928   12.9012 O.3         1 SU3      -0.2338
     54 H1         -8.6275   -3.8063   10.9497 H           1 SU3       0.0803
     55 H2         -7.6980   -4.4624   12.9871 H           1 SU3       0.0342
     56 H3         -6.5887   -5.6409   12.2782 H           1 SU3       0.0342
     57 H4         -8.2246   -7.1827   12.9524 H           1 SU3       0.0673
     58 H5         -9.5849   -7.5131    8.4952 H           1 SU3       0.0805
     59 H6        -11.3105   -5.3688    7.4825 H           1 SU3       0.1899
     60 H7         -2.7716   -1.7031    8.4961 H           1 SU3       0.0265
     61 H8         -2.6244   -3.4329    8.1330 H           1 SU3       0.0265
     62 H9         -1.8107   -2.1563    6.2244 H           1 SU3       0.0230
     63 H10        -3.3014   -1.1811    6.1578 H           1 SU3       0.0230
     64 H11        -3.3539   -2.9184    5.7358 H           1 SU3       0.0230
     65 H12        -8.7287   -5.8249    4.5953 H           1 SU3       0.0237
     66 H13        -8.2363   -4.8574    5.9693 H           1 SU3       0.0237
     67 H14        -9.9579   -5.0411    5.5957 H           1 SU3       0.0237
     68 H15        -7.3114   -2.2444   10.1333 H           1 SU3       0.1839
     69 H16        -5.0604   -3.7630    7.8424 H           1 SU3       0.0312
     70 H17        -5.2346   -0.7314    7.5648 H           1 SU3       0.0279
     71 H18        -6.6133   -1.9947    7.4269 H           1 SU3       0.0279
     72 H19       -11.1043   -4.5055   16.5648 H           1 SU3       0.0373
     73 H20       -12.4036   -5.2280   12.7032 H           1 SU3       0.0361
     74 H21       -13.5318   -3.4623   17.5988 H           1 SU3       0.0557
     75 H22       -15.8470   -2.9790   17.0096 H           1 SU3       0.0599
     76 H23       -16.6481   -3.3995   14.7735 H           1 SU3       0.0557
     77 H24       -14.4740   -4.2864   11.9058 H           1 SU3       0.0426
     78 H25       -15.9983   -3.5481   12.3391 H           1 SU3       0.0426
     79 H26        -6.7881   -0.2139   10.1566 H           1 SU3       0.2148
     80 H27        -6.8013    3.2691   12.3135 H           1 SU3       0.0559
     81 H28        -8.4960    1.0157   10.9396 H           1 SU3       0.0285
     82 H29        -9.1163    2.5976   11.7621 H           1 SU3       0.0285
     83 H30        -8.1101    1.8847   13.8830 H           1 SU3       0.0285
     84 H31        -7.4855    0.3083   13.0635 H           1 SU3       0.0285
     85 H32       -16.8832   -5.7128   13.1481 H           1 SU3       0.0287
     86 H33       -15.3438   -6.5144   12.8315 H           1 SU3       0.0287
     87 H34       -17.0072   -5.1751   10.6409 H           1 SU3       0.0267
     88 H35       -17.2449   -6.8475   11.1398 H           1 SU3       0.0267
     89 H36       -14.9969   -7.4794   10.4813 H           1 SU3       0.0271
     90 H37       -14.5573   -5.8224   10.1110 H           1 SU3       0.0271
     91 H38       -14.4034   -8.4330    8.2613 H           1 SU3       0.0617
     92 H39       -14.8660   -7.6196    6.7795 H           1 SU3       0.0617
     93 H40       -17.9220   -7.2219    8.8626 H           1 SU3       0.0236
     94 H41       -16.8620   -8.6339    8.9823 H           1 SU3       0.0236
     95 H42       -17.2404   -7.9313    7.4031 H           1 SU3       0.0236
     96 H43       -15.2674   -4.7014    7.9728 H           1 SU3       0.0236
     97 H44       -16.9901   -4.9326    8.2937 H           1 SU3       0.0236
     98 H45       -16.2858   -5.5495    6.8015 H           1 SU3       0.0236
     99 H46        -7.6468   -8.3737    7.1838 H           1 SU3       0.0237
    100 H47        -6.9811   -6.7347    7.2328 H           1 SU3       0.0237
    101 H48        -7.1680   -7.5735    5.6895 H           1 SU3       0.0237
    102 H49       -10.9275   -7.5094    5.5499 H           1 SU3       0.0237
    103 H50       -10.0486   -8.8030    6.3733 H           1 SU3       0.0237
    104 H51        -9.4718   -8.1793    4.8230 H           1 SU3       0.0237
    105 H52        -8.1392   -7.6167   10.6360 H           1 SU3       0.0553
    106 H53        -9.8570   -7.1692   10.7749 H           1 SU3       0.0553
@<TRIPOS>BOND
     1     1     3   2
     2     1     4   1
     3    21     1  am
     4     4     2   1
     5     2     7  am
     6     2    52   1
     7     4     5   1
     8     5     6   1
     9     6    52   1
    10     6    53   1
    11     7     8   2
    12     7     9   1
    13     9    10   1
    14     9    13   1
    15    10    11  am
    16    11    12   1
    17    11    14   2
    18    12    47   1
    19    13    20   1
    20    13    50   1
    21    13    51   1
    22    15    16   2
    23    15    17  am
    24    53    15   1
    25    17    26   1
    26    17    29   1
    27    18    19   1
    28    24    18   1
    29    22    21   1
    30    22    23   1
    31    22    24   1
    32    22    25   1
    33    23    35  am
    34    23    36   2
    35    24    25   1
    36    26    27   2
    37    27    28  ar
    38    27    30  ar
    39    28    29   2
    40    28    33  ar
    41    30    31  ar
    42    31    32  ar
    43    32    33  ar
    44    33    34   1
    45    34    43   1
    46    35    37  am
    47    37    38   1
    48    37    39   2
    49    37    40   2
    50    38    41   1
    51    38    42   1
    52    41    42   1
    53    43    44   1
    54    44    45   1
    55    45    46   1
    56    46    47   1
    57    46    48   1
    58    46    49   1
    59     4    54   1
    60     5    55   1
    61     5    56   1
    62     6    57   1
    63     9    58   1
    64    10    59   1
    65    18    60   1
    66    18    61   1
    67    19    62   1
    68    19    63   1
    69    19    64   1
    70    20    65   1
    71    20    66   1
    72    20    67   1
    73    21    68   1
    74    24    69   1
    75    25    70   1
    76    25    71   1
    77    26    72   1
    78    29    73   1
    79    30    74   1
    80    31    75   1
    81    32    76   1
    82    34    77   1
    83    34    78   1
    84    35    79   1
    85    38    80   1
    86    41    81   1
    87    41    82   1
    88    42    83   1
    89    42    84   1
    90    43    85   1
    91    43    86   1
    92    44    87   1
    93    44    88   1
    94    45    89   1
    95    45    90   1
    96    47    91   1
    97    47    92   1
    98    48    93   1
    99    48    94   1
   100    48    95   1
   101    49    96   1
   102    49    97   1
   103    49    98   1
   104    50    99   1
   105    50   100   1
   106    50   101   1
   107    51   102   1
   108    51   103   1
   109    51   104   1
   110    52   105   1
   111    52   106   1
@<TRIPOS>SUBSTRUCTURE
     1  SU3      1

