@<TRIPOS>MOLECULE
3su3_ligand_047
   106   111
SMALL
GAST_HUCK
****
This file was generated by PARSER (from files_GN.cpp)

@<TRIPOS>ATOM
      1 C         -15.6433   -7.7964   12.2042 C.2         1 SU3       0.2013
      2 N         -17.4873   -9.4077   12.3343 N.am        1 SU3      -0.2469
      3 O         -15.1485   -7.7515   11.0779 O.2         1 SU3      -0.3947
      4 CA        -16.1302   -9.0742   12.7255 C.3         1 SU3       0.1363
      5 CB        -15.2514  -10.2598   12.2462 C.3         1 SU3       0.0206
      6 CG        -16.2468  -11.4205   12.1836 C.3         1 SU3       0.1158
      7 CAF       -18.5550   -8.6154   12.5654 C.2         1 SU3       0.2070
      8 OAG       -18.3824   -7.6018   13.2348 O.2         1 SU3      -0.3942
      9 CAH       -19.9341   -8.8364   12.0908 C.3         1 SU3       0.1378
     10 NAI       -20.7812   -8.8841   13.2514 N.am        1 SU3      -0.2407
     11 CAJ       -21.6061   -9.8945   13.6218 C.2         1 SU3       0.3218
     12 OAK       -22.4070   -9.6828   14.6985 O.3         1 SU3      -0.2633
     13 CAL       -20.4530   -7.7892   11.0139 C.3         1 SU3       0.0025
     14 OAM       -21.6933  -11.0400   12.9041 O.2         1 SU3      -0.3774
     15 CAO       -15.5823  -12.8077   14.1747 C.2         1 SU3       0.4317
     16 OAP       -14.4236  -13.2110   13.5950 O.2         1 SU3      -0.3166
     17 NAQ       -15.8984  -13.1811   15.4423 N.am        1 SU3      -0.2080
     18 CAR       -15.0897   -3.5787   10.5702 C.3         1 SU3      -0.0516
     19 CAS       -13.7850   -4.1453    9.9783 C.3         1 SU3      -0.0651
     20 CAT       -21.9041   -8.1870   10.5731 C.3         1 SU3      -0.0558
     21 NAV       -15.8102   -6.6937   12.9140 N.am        1 SU3      -0.2737
     22 CAX       -15.3041   -5.3943   12.5947 C.3         1 SU3       0.1374
     23 CAY       -13.9948   -5.1047   13.1363 C.2         1 SU3       0.2444
     24 CAZ       -15.8736   -4.6772   11.3369 C.3         1 SU3      -0.0066
     25 CBA       -16.4222   -4.3180   12.7274 C.3         1 SU3      -0.0152
     26 CBB       -15.1479  -13.9647   16.2436 C.2         1 SU3       0.0383
     27 CBC       -15.7911  -14.0897   17.4684 C.ar        1 SU3      -0.0374
     28 CBD       -16.9722  -13.3505   17.3983 C.ar        1 SU3      -0.0293
     29 CBE       -17.0082  -12.8076   16.1175 C.2         1 SU3       0.0366
     30 CBF       -15.4321  -14.7887   18.6302 C.ar        1 SU3      -0.0689
     31 CBG       -16.2982  -14.7335   19.7390 C.ar        1 SU3      -0.0688
     32 CBH       -17.4956  -13.9812   19.6751 C.ar        1 SU3      -0.0606
     33 CBI       -17.8504  -13.2610   18.5019 C.ar        1 SU3      -0.0432
     34 CBJ       -19.0920  -12.4395   18.4789 C.3         1 SU3      -0.0194
     35 NBK       -13.2636   -6.1017   13.6390 N.am        1 SU3      -0.1552
     36 OBL       -13.5759   -3.9387   13.1647 O.2         1 SU3      -0.3404
     37 SBM       -11.8249   -5.9494   14.4874 S.o2        1 SU3       0.0645
     38 CBN       -11.7956   -6.5874   16.1859 C.3         1 SU3       0.1004
     39 OBO       -10.7458   -6.7837   13.6372 O.2         1 SU3      -0.1503
     40 OBP       -11.1947   -4.4924   14.4204 O.2         1 SU3      -0.1503
     41 CBQ       -11.7664   -5.5483   17.3234 C.3         1 SU3      -0.0268
     42 CBR       -13.0116   -6.4183   17.1099 C.3         1 SU3      -0.0268
     43 CBS       -20.3702  -13.3026   18.3041 C.3         1 SU3      -0.0433
     44 CBT       -21.6886  -12.4801   18.2395 C.3         1 SU3      -0.0507
     45 CBU       -21.9753  -11.8241   16.8515 C.3         1 SU3      -0.0453
     46 CBV       -23.2624  -10.9256   16.7245 C.3         1 SU3      -0.0072
     47 CBW       -23.4561  -10.5183   15.2188 C.3         1 SU3       0.0824
     48 CBX       -24.5425  -11.7056   17.1776 C.3         1 SU3      -0.0574
     49 CBY       -23.1332   -9.6312   17.5889 C.3         1 SU3      -0.0574
     50 CBZ       -20.5042   -6.3155   11.5483 C.3         1 SU3      -0.0558
     51 CCA       -19.5454   -7.8242    9.7427 C.3         1 SU3      -0.0558
     52 CD1       -17.5542  -10.7245   11.7632 C.3         1 SU3       0.0677
     53 OD2       -16.4267  -12.0004   13.4838 O.3         1 SU3      -0.2338
     54 H1        -16.1153   -9.0672   13.8254 H           1 SU3       0.0803
     55 H2        -14.4207  -10.4426   12.9295 H           1 SU3       0.0342
     56 H3        -14.8467  -10.0989   11.2441 H           1 SU3       0.0342
     57 H4        -15.9461  -12.1830   11.4607 H           1 SU3       0.0673
     58 H5        -19.9761   -9.8013   11.5852 H           1 SU3       0.0805
     59 H6        -20.7999   -8.0902   13.8097 H           1 SU3       0.1899
     60 H7        -15.7171   -3.2262    9.7468 H           1 SU3       0.0265
     61 H8        -14.8588   -2.7192   11.2071 H           1 SU3       0.0265
     62 H9        -13.3356   -3.4172    9.3035 H           1 SU3       0.0230
     63 H10       -13.9803   -5.0505    9.3976 H           1 SU3       0.0230
     64 H11       -13.0850   -4.3744   10.7855 H           1 SU3       0.0230
     65 H12       -22.2668   -7.5388    9.7734 H           1 SU3       0.0237
     66 H13       -22.6038   -8.1072   11.4080 H           1 SU3       0.0237
     67 H14       -21.9319   -9.2154   10.2065 H           1 SU3       0.0237
     68 H15       -16.2532   -6.7852   13.7684 H           1 SU3       0.1839
     69 H16       -16.6222   -5.2271   10.7624 H           1 SU3       0.0312
     70 H17       -16.1530   -3.3263   13.0815 H           1 SU3       0.0279
     71 H18       -17.4517   -4.6539   12.8848 H           1 SU3       0.0279
     72 H19       -14.2508  -14.3943   16.0075 H           1 SU3       0.0373
     73 H20       -17.7565  -12.2202   15.7513 H           1 SU3       0.0361
     74 H21       -14.5624  -15.3232   18.6780 H           1 SU3       0.0557
     75 H22       -16.0556  -15.2311   20.6055 H           1 SU3       0.0599
     76 H23       -18.1007  -13.9464   20.5054 H           1 SU3       0.0557
     77 H24       -19.0413  -11.7067   17.6756 H           1 SU3       0.0426
     78 H25       -19.1599  -11.8740   19.4125 H           1 SU3       0.0426
     79 H26       -13.6359   -7.0079   13.5723 H           1 SU3       0.2148
     80 H27       -11.1845   -7.4630   16.3964 H           1 SU3       0.0559
     81 H28       -11.8932   -4.4999   17.0459 H           1 SU3       0.0285
     82 H29       -11.1513   -5.7993   18.1938 H           1 SU3       0.0285
     83 H30       -13.1693   -7.2214   17.8320 H           1 SU3       0.0285
     84 H31       -13.8757   -5.9006   16.6956 H           1 SU3       0.0285
     85 H32       -20.4403  -13.9862   19.1557 H           1 SU3       0.0287
     86 H33       -20.2796  -13.9144   17.4020 H           1 SU3       0.0287
     87 H34       -21.6688  -11.7193   19.0217 H           1 SU3       0.0267
     88 H35       -22.5056  -13.1671   18.4705 H           1 SU3       0.0267
     89 H36       -22.0456  -12.6368   16.1233 H           1 SU3       0.0271
     90 H37       -21.1086  -11.2223   16.5696 H           1 SU3       0.0271
     91 H38       -23.5723  -11.4159   14.6068 H           1 SU3       0.0617
     92 H39       -24.3794   -9.9436   15.1118 H           1 SU3       0.0617
     93 H40       -24.5128  -11.9279   18.2460 H           1 SU3       0.0236
     94 H41       -24.6342  -12.6485   16.6347 H           1 SU3       0.0236
     95 H42       -25.4447  -11.1175   16.9942 H           1 SU3       0.0236
     96 H43       -22.2137   -9.0922   17.3509 H           1 SU3       0.0236
     97 H44       -23.1198   -9.8691   18.6538 H           1 SU3       0.0236
     98 H45       -23.9760   -8.9586   17.4116 H           1 SU3       0.0236
     99 H46       -19.5014   -5.9222   11.7256 H           1 SU3       0.0237
    100 H47       -21.0661   -6.2551   12.4801 H           1 SU3       0.0237
    101 H48       -20.9866   -5.6570   10.8234 H           1 SU3       0.0237
    102 H49       -19.5186   -8.8286    9.3102 H           1 SU3       0.0237
    103 H50       -18.5213   -7.5323    9.9802 H           1 SU3       0.0237
    104 H51       -19.9146   -7.1383    8.9746 H           1 SU3       0.0237
    105 H52       -17.6272  -10.6527   10.6756 H           1 SU3       0.0553
    106 H53       -18.3960  -11.3102   12.1448 H           1 SU3       0.0553
@<TRIPOS>BOND
     1     1     3   2
     2     1     4   1
     3    21     1  am
     4     4     2   1
     5     2     7  am
     6     2    52   1
     7     4     5   1
     8     5     6   1
     9     6    52   1
    10     6    53   1
    11     7     8   2
    12     7     9   1
    13     9    10   1
    14     9    13   1
    15    10    11  am
    16    11    12   1
    17    11    14   2
    18    12    47   1
    19    13    20   1
    20    13    50   1
    21    13    51   1
    22    15    16   2
    23    15    17  am
    24    53    15   1
    25    17    26   1
    26    17    29   1
    27    18    19   1
    28    24    18   1
    29    22    21   1
    30    22    23   1
    31    22    24   1
    32    22    25   1
    33    23    35  am
    34    23    36   2
    35    24    25   1
    36    26    27   2
    37    27    28  ar
    38    27    30  ar
    39    28    29   2
    40    28    33  ar
    41    30    31  ar
    42    31    32  ar
    43    32    33  ar
    44    33    34   1
    45    34    43   1
    46    35    37  am
    47    37    38   1
    48    37    39   2
    49    37    40   2
    50    38    41   1
    51    38    42   1
    52    41    42   1
    53    43    44   1
    54    44    45   1
    55    45    46   1
    56    46    47   1
    57    46    48   1
    58    46    49   1
    59     4    54   1
    60     5    55   1
    61     5    56   1
    62     6    57   1
    63     9    58   1
    64    10    59   1
    65    18    60   1
    66    18    61   1
    67    19    62   1
    68    19    63   1
    69    19    64   1
    70    20    65   1
    71    20    66   1
    72    20    67   1
    73    21    68   1
    74    24    69   1
    75    25    70   1
    76    25    71   1
    77    26    72   1
    78    29    73   1
    79    30    74   1
    80    31    75   1
    81    32    76   1
    82    34    77   1
    83    34    78   1
    84    35    79   1
    85    38    80   1
    86    41    81   1
    87    41    82   1
    88    42    83   1
    89    42    84   1
    90    43    85   1
    91    43    86   1
    92    44    87   1
    93    44    88   1
    94    45    89   1
    95    45    90   1
    96    47    91   1
    97    47    92   1
    98    48    93   1
    99    48    94   1
   100    48    95   1
   101    49    96   1
   102    49    97   1
   103    49    98   1
   104    50    99   1
   105    50   100   1
   106    50   101   1
   107    51   102   1
   108    51   103   1
   109    51   104   1
   110    52   105   1
   111    52   106   1
@<TRIPOS>SUBSTRUCTURE
     1  SU3      1

