@<TRIPOS>MOLECULE
3su3_ligand_022
   106   111
SMALL
GAST_HUCK
****
This file was generated by PARSER (from files_GN.cpp)

@<TRIPOS>ATOM
      1 C          -7.5438   -3.4129   11.3228 C.2         1 SU3       0.2013
      2 N          -6.5986   -2.0842    9.4729 N.am        1 SU3      -0.2469
      3 O          -8.5104   -3.7123   10.6354 O.2         1 SU3      -0.3947
      4 CA         -6.7036   -2.2917   10.9042 C.3         1 SU3       0.1363
      5 CB         -7.2886   -0.9710   11.4651 C.3         1 SU3       0.0206
      6 CG         -6.9241    0.0850   10.4109 C.3         1 SU3       0.1158
      7 CAF        -6.2185   -3.0410    8.5973 C.2         1 SU3       0.2070
      8 OAG        -5.6631   -4.0348    9.0550 O.2         1 SU3      -0.3942
      9 CAH        -6.3827   -2.9953    7.1321 C.3         1 SU3       0.1378
     10 NAI        -5.0451   -2.9931    6.6026 N.am        1 SU3      -0.2407
     11 CAJ        -4.4665   -2.0510    5.8213 C.2         1 SU3       0.3218
     12 OAK        -3.2338   -2.3418    5.3283 O.3         1 SU3      -0.2633
     13 CAL        -7.3337   -4.1107    6.4610 C.3         1 SU3       0.0025
     14 OAM        -5.0990   -0.9034    5.4744 O.2         1 SU3      -0.3774
     15 CAO        -5.1771    1.5608   11.5255 C.2         1 SU3       0.4317
     16 OAP        -6.0407    2.1416   12.3930 O.2         1 SU3      -0.3166
     17 NAQ        -3.8590    1.8887   11.5018 N.am        1 SU3      -0.2080
     18 CAR        -7.4988   -7.8336   13.4503 C.3         1 SU3      -0.0516
     19 CAS        -6.7002   -8.6304   14.5039 C.3         1 SU3      -0.0651
     20 CAT        -8.0007   -5.1148    7.4672 C.3         1 SU3      -0.0558
     21 NAV        -7.3223   -4.0228   12.4773 N.am        1 SU3      -0.2737
     22 CAX        -7.9926   -5.1729   13.0257 C.3         1 SU3       0.1374
     23 CAY        -9.3724   -5.4666   12.6844 C.2         1 SU3       0.2444
     24 CAZ        -7.0499   -6.3485   13.3899 C.3         1 SU3      -0.0066
     25 CBA        -7.6005   -5.4359   14.4956 C.3         1 SU3      -0.0152
     26 CBB        -3.2240    2.8030   12.2676 C.2         1 SU3       0.0383
     27 CBC        -1.8690    2.7853   11.9506 C.ar        1 SU3      -0.0374
     28 CBD        -1.6887    1.8397   10.9423 C.ar        1 SU3      -0.0293
     29 CBE        -2.9503    1.3150   10.6815 C.2         1 SU3       0.0366
     30 CBF        -0.7761    3.5034   12.4674 C.ar        1 SU3      -0.0689
     31 CBG         0.5068    3.2447   11.9432 C.ar        1 SU3      -0.0688
     32 CBH         0.6826    2.2940   10.9139 C.ar        1 SU3      -0.0606
     33 CBI        -0.4181    1.5712   10.3874 C.ar        1 SU3      -0.0432
     34 CBJ        -0.2166    0.5944    9.2802 C.3         1 SU3      -0.0194
     35 NBK        -9.6138   -6.2176   11.6258 N.am        1 SU3      -0.1552
     36 OBL       -10.2704   -4.9135   13.3111 O.2         1 SU3      -0.3404
     37 SBM       -11.1302   -6.4791   10.9272 S.o2        1 SU3       0.0645
     38 CBN       -12.1377   -7.8449   11.5564 C.3         1 SU3       0.1004
     39 OBO       -11.9299   -5.1096   10.8025 O.2         1 SU3      -0.1503
     40 OBP       -10.8222   -6.8254    9.4089 O.2         1 SU3      -0.1503
     41 CBQ       -12.0006   -8.2564   13.0285 C.3         1 SU3      -0.0268
     42 CBR       -13.2333   -7.4712   12.5665 C.3         1 SU3      -0.0268
     43 CBS         0.0202    1.3090    7.9210 C.3         1 SU3      -0.0433
     44 CBT         0.2031    0.3499    6.7117 C.3         1 SU3      -0.0507
     45 CBU        -1.1213   -0.2466    6.1405 C.3         1 SU3      -0.0453
     46 CBV        -0.9963   -1.2669    4.9464 C.3         1 SU3      -0.0072
     47 CBW        -2.4264   -1.6042    4.3950 C.3         1 SU3       0.0824
     48 CBX        -0.1615   -0.6602    3.7696 C.3         1 SU3      -0.0574
     49 CBY        -0.3082   -2.5903    5.4142 C.3         1 SU3      -0.0574
     50 CBZ        -8.5139   -3.4084    5.6984 C.3         1 SU3      -0.0558
     51 CCA        -6.5912   -4.9969    5.4008 C.3         1 SU3      -0.0558
     52 CD1        -6.8696   -0.7238    9.0986 C.3         1 SU3       0.0677
     53 OD2        -5.6237    0.6374   10.6350 O.3         1 SU3      -0.2338
     54 H1         -5.6875   -2.4277   11.2888 H           1 SU3       0.0803
     55 H2         -6.8754   -0.7358   12.4500 H           1 SU3       0.0342
     56 H3         -8.3820   -1.0089   11.5505 H           1 SU3       0.0342
     57 H4         -7.6684    0.8856   10.3527 H           1 SU3       0.0673
     58 H5         -6.8156   -2.0251    6.8892 H           1 SU3       0.0805
     59 H6         -4.5194   -3.7866    6.7700 H           1 SU3       0.1899
     60 H7         -8.5615   -7.9196   13.6868 H           1 SU3       0.0265
     61 H8         -7.3366   -8.2788   12.4655 H           1 SU3       0.0265
     62 H9         -7.0537   -9.6636   14.5336 H           1 SU3       0.0230
     63 H10        -6.8343   -8.1886   15.4932 H           1 SU3       0.0230
     64 H11        -5.6375   -8.6314   14.2591 H           1 SU3       0.0230
     65 H12        -8.6992   -5.7858    6.9596 H           1 SU3       0.0237
     66 H13        -8.5617   -4.5787    8.2307 H           1 SU3       0.0237
     67 H14        -7.2539   -5.7407    7.9605 H           1 SU3       0.0237
     68 H15        -6.5784   -3.6782   12.9937 H           1 SU3       0.1839
     69 H16        -5.9923   -6.1746   13.1792 H           1 SU3       0.0312
     70 H17        -8.3640   -5.8733   15.1447 H           1 SU3       0.0279
     71 H18        -6.8657   -4.7623   14.9434 H           1 SU3       0.0279
     72 H19        -3.6519    3.3986   12.9816 H           1 SU3       0.0373
     73 H20        -3.1497    0.5940    9.9870 H           1 SU3       0.0361
     74 H21        -0.9038    4.1924   13.2118 H           1 SU3       0.0557
     75 H22         1.3165    3.7511   12.3093 H           1 SU3       0.0599
     76 H23         1.6246    2.1301   10.5496 H           1 SU3       0.0557
     77 H24        -1.0775   -0.0678    9.1886 H           1 SU3       0.0426
     78 H25         0.6396   -0.0424    9.5186 H           1 SU3       0.0426
     79 H26        -8.8504   -6.5844   11.1517 H           1 SU3       0.2148
     80 H27       -12.4266   -8.6395   10.8639 H           1 SU3       0.0559
     81 H28       -11.3024   -7.6933   13.6468 H           1 SU3       0.0285
     82 H29       -12.1779   -9.3101   13.2462 H           1 SU3       0.0285
     83 H30       -14.1548   -8.0523   12.5155 H           1 SU3       0.0285
     84 H31       -13.2711   -6.4392   12.9221 H           1 SU3       0.0285
     85 H32         0.9281    1.9128    8.0074 H           1 SU3       0.0287
     86 H33        -0.8079    1.9929    7.7150 H           1 SU3       0.0287
     87 H34         0.8858   -0.4515    6.9995 H           1 SU3       0.0267
     88 H35         0.6887    0.9278    5.9216 H           1 SU3       0.0267
     89 H36        -1.7380    0.5958    5.8146 H           1 SU3       0.0271
     90 H37        -1.6594   -0.7351    6.9552 H           1 SU3       0.0271
     91 H38        -2.9340   -0.6892    4.0850 H           1 SU3       0.0617
     92 H39        -2.3402   -2.2361    3.5083 H           1 SU3       0.0617
     93 H40         0.8788   -0.4979    4.0622 H           1 SU3       0.0236
     94 H41        -0.5810    0.2976    3.4512 H           1 SU3       0.0236
     95 H42        -0.1518   -1.3321    2.9073 H           1 SU3       0.0236
     96 H43        -0.8251   -3.0179    6.2761 H           1 SU3       0.0236
     97 H44         0.7334   -2.4207    5.6931 H           1 SU3       0.0236
     98 H45        -0.3201   -3.3292    4.6107 H           1 SU3       0.0236
     99 H46        -8.1297   -2.7228    4.9379 H           1 SU3       0.0237
    100 H47        -9.1385   -2.8344    6.3873 H           1 SU3       0.0237
    101 H48        -9.1571   -4.1363    5.1969 H           1 SU3       0.0237
    102 H49        -5.7671   -5.5380    5.8696 H           1 SU3       0.0237
    103 H50        -6.1871   -4.3838    4.5913 H           1 SU3       0.0237
    104 H51        -7.2578   -5.7341    4.9517 H           1 SU3       0.0237
    105 H52        -7.8191   -0.6521    8.5649 H           1 SU3       0.0553
    106 H53        -6.0824   -0.3239    8.4491 H           1 SU3       0.0553
@<TRIPOS>BOND
     1     1     3   2
     2     1     4   1
     3    21     1  am
     4     4     2   1
     5     2     7  am
     6     2    52   1
     7     4     5   1
     8     5     6   1
     9     6    52   1
    10     6    53   1
    11     7     8   2
    12     7     9   1
    13     9    10   1
    14     9    13   1
    15    10    11  am
    16    11    12   1
    17    11    14   2
    18    12    47   1
    19    13    20   1
    20    13    50   1
    21    13    51   1
    22    15    16   2
    23    15    17  am
    24    53    15   1
    25    17    26   1
    26    17    29   1
    27    18    19   1
    28    24    18   1
    29    22    21   1
    30    22    23   1
    31    22    24   1
    32    22    25   1
    33    23    35  am
    34    23    36   2
    35    24    25   1
    36    26    27   2
    37    27    28  ar
    38    27    30  ar
    39    28    29   2
    40    28    33  ar
    41    30    31  ar
    42    31    32  ar
    43    32    33  ar
    44    33    34   1
    45    34    43   1
    46    35    37  am
    47    37    38   1
    48    37    39   2
    49    37    40   2
    50    38    41   1
    51    38    42   1
    52    41    42   1
    53    43    44   1
    54    44    45   1
    55    45    46   1
    56    46    47   1
    57    46    48   1
    58    46    49   1
    59     4    54   1
    60     5    55   1
    61     5    56   1
    62     6    57   1
    63     9    58   1
    64    10    59   1
    65    18    60   1
    66    18    61   1
    67    19    62   1
    68    19    63   1
    69    19    64   1
    70    20    65   1
    71    20    66   1
    72    20    67   1
    73    21    68   1
    74    24    69   1
    75    25    70   1
    76    25    71   1
    77    26    72   1
    78    29    73   1
    79    30    74   1
    80    31    75   1
    81    32    76   1
    82    34    77   1
    83    34    78   1
    84    35    79   1
    85    38    80   1
    86    41    81   1
    87    41    82   1
    88    42    83   1
    89    42    84   1
    90    43    85   1
    91    43    86   1
    92    44    87   1
    93    44    88   1
    94    45    89   1
    95    45    90   1
    96    47    91   1
    97    47    92   1
    98    48    93   1
    99    48    94   1
   100    48    95   1
   101    49    96   1
   102    49    97   1
   103    49    98   1
   104    50    99   1
   105    50   100   1
   106    50   101   1
   107    51   102   1
   108    51   103   1
   109    51   104   1
   110    52   105   1
   111    52   106   1
@<TRIPOS>SUBSTRUCTURE
     1  SU3      1

