@<TRIPOS>MOLECULE
3su3_ligand_044
   106   111
SMALL
GAST_HUCK
****
This file was generated by PARSER (from files_GN.cpp)

@<TRIPOS>ATOM
      1 C          -9.3542   -9.9284    8.7581 C.2         1 SU3       0.2013
      2 N          -9.9477   -7.8094    9.9390 N.am        1 SU3      -0.2469
      3 O          -8.5193  -10.1677    9.6197 O.2         1 SU3      -0.3947
      4 CA        -10.3158   -8.8402    8.9738 C.3         1 SU3       0.1363
      5 CB        -10.5965   -8.0545    7.6631 C.3         1 SU3       0.0206
      6 CG        -10.9254   -6.6362    8.1386 C.3         1 SU3       0.1158
      7 CAF        -9.6969   -8.0346   11.2471 C.2         1 SU3       0.2070
      8 OAG        -9.9859   -9.1364   11.7008 O.2         1 SU3      -0.3942
      9 CAH        -9.1109   -7.0842   12.2169 C.3         1 SU3       0.1378
     10 NAI       -10.0558   -6.9635   13.3062 N.am        1 SU3      -0.2407
     11 CAJ       -10.5513   -5.8050   13.8085 C.2         1 SU3       0.3218
     12 OAK       -11.2561   -5.8580   14.9703 O.3         1 SU3      -0.2633
     13 CAL        -7.6028   -7.3612   12.7076 C.3         1 SU3       0.0025
     14 OAM       -10.2855   -4.6128   13.2199 O.2         1 SU3      -0.3774
     15 CAO       -13.4246   -6.4984    7.8117 C.2         1 SU3       0.4317
     16 OAP       -13.3228   -6.5518    6.4610 O.2         1 SU3      -0.3166
     17 NAQ       -14.6370   -6.4153    8.4150 N.am        1 SU3      -0.2080
     18 CAR        -7.2524  -12.9381    5.2123 C.3         1 SU3      -0.0516
     19 CAS        -8.1147  -13.2027    3.9604 C.3         1 SU3      -0.0651
     20 CAT        -6.6256   -6.3464   12.0148 C.3         1 SU3      -0.0558
     21 NAV        -9.3882  -10.6898    7.6680 N.am        1 SU3      -0.2737
     22 CAX        -8.5096  -11.7866    7.3802 C.3         1 SU3       0.1374
     23 CAY        -8.9097  -13.0775    7.8990 C.2         1 SU3       0.2444
     24 CAZ        -7.7656  -11.7126    6.0163 C.3         1 SU3      -0.0066
     25 CBA        -6.9988  -11.4592    7.3224 C.3         1 SU3      -0.0152
     26 CBB       -15.8342   -6.3672    7.7873 C.2         1 SU3       0.0383
     27 CBC       -16.8391   -6.2887    8.7440 C.ar        1 SU3      -0.0374
     28 CBD       -16.2264   -6.2996    9.9961 C.ar        1 SU3      -0.0293
     29 CBE       -14.8564   -6.3704    9.7504 C.2         1 SU3       0.0366
     30 CBF       -18.2339   -6.2079    8.6109 C.ar        1 SU3      -0.0689
     31 CBG       -19.0151   -6.1283    9.7811 C.ar        1 SU3      -0.0688
     32 CBH       -18.4010   -6.1409   11.0515 C.ar        1 SU3      -0.0606
     33 CBI       -16.9916   -6.2370   11.1869 C.ar        1 SU3      -0.0432
     34 CBJ       -16.3706   -6.2650   12.5388 C.3         1 SU3      -0.0194
     35 NBK        -8.6101  -13.4002    9.1475 N.am        1 SU3      -0.1552
     36 OBL        -9.6313  -13.7812    7.2026 O.2         1 SU3      -0.3404
     37 SBM        -9.1036  -14.8267    9.9009 S.o2        1 SU3       0.0645
     38 CBN       -10.7237  -14.6803   10.6902 C.3         1 SU3       0.1004
     39 OBO        -9.0061  -16.0541    8.8932 O.2         1 SU3      -0.1503
     40 OBP        -8.0095  -15.1637   11.0035 O.2         1 SU3      -0.1503
     41 CBQ       -11.9626  -15.0551    9.8634 C.3         1 SU3      -0.0268
     42 CBR       -11.5021  -15.9632   11.0140 C.3         1 SU3      -0.0268
     43 CBS       -16.2796   -4.8472   13.1643 C.3         1 SU3      -0.0433
     44 CBT       -15.6256   -4.8171   14.5750 C.3         1 SU3      -0.0507
     45 CBU       -14.0699   -4.9336   14.5706 C.3         1 SU3      -0.0453
     46 CBV       -13.3358   -4.8654   15.9641 C.3         1 SU3      -0.0072
     47 CBW       -11.7910   -4.7532   15.7251 C.3         1 SU3       0.0824
     48 CBX       -13.7848   -3.6015   16.7654 C.3         1 SU3      -0.0574
     49 CBY       -13.6163   -6.1405   16.8222 C.3         1 SU3      -0.0574
     50 CBZ        -7.4273   -7.1785   14.2560 C.3         1 SU3      -0.0558
     51 CCA        -7.0628   -8.7905   12.3743 C.3         1 SU3      -0.0558
     52 CD1       -10.0045   -6.4962    9.3576 C.3         1 SU3       0.0677
     53 OD2       -12.2927   -6.5236    8.5677 O.3         1 SU3      -0.2338
     54 H1        -11.2542   -9.2967    9.3058 H           1 SU3       0.0803
     55 H2        -11.4180   -8.4985    7.0942 H           1 SU3       0.0342
     56 H3         -9.7097   -8.0106    7.0196 H           1 SU3       0.0342
     57 H4        -10.7008   -5.8788    7.3813 H           1 SU3       0.0673
     58 H5         -9.0907   -6.1130   11.7287 H           1 SU3       0.0805
     59 H6        -10.2535   -7.7759   13.8037 H           1 SU3       0.1899
     60 H7         -6.2267  -12.7391    4.8921 H           1 SU3       0.0265
     61 H8         -7.2402  -13.8400    5.8273 H           1 SU3       0.0265
     62 H9         -7.6852  -14.0248    3.3836 H           1 SU3       0.0230
     63 H10        -8.1463  -12.3146    3.3264 H           1 SU3       0.0230
     64 H11        -9.1323  -13.4721    4.2480 H           1 SU3       0.0230
     65 H12        -5.5874   -6.5163   12.3048 H           1 SU3       0.0237
     66 H13        -6.8797   -5.3205   12.2855 H           1 SU3       0.0237
     67 H14        -6.6903   -6.4398   10.9290 H           1 SU3       0.0237
     68 H15       -10.0680  -10.4954    7.0041 H           1 SU3       0.1839
     69 H16        -7.9056  -10.7873    5.4515 H           1 SU3       0.0312
     70 H17        -6.3162  -12.2459    7.6523 H           1 SU3       0.0279
     71 H18        -6.7069  -10.4201    7.4736 H           1 SU3       0.0279
     72 H19       -15.9892   -6.3816    6.7767 H           1 SU3       0.0373
     73 H20       -14.1312   -6.3842   10.4717 H           1 SU3       0.0361
     74 H21       -18.6734   -6.2016    7.6887 H           1 SU3       0.0557
     75 H22       -20.0327   -6.0621    9.7077 H           1 SU3       0.0599
     76 H23       -18.9936   -6.0842   11.8844 H           1 SU3       0.0557
     77 H24       -15.3737   -6.7031   12.4876 H           1 SU3       0.0426
     78 H25       -16.9621   -6.9133   13.1917 H           1 SU3       0.0426
     79 H26        -8.1187  -12.7541    9.6876 H           1 SU3       0.2148
     80 H27       -10.8747  -13.8635   11.3959 H           1 SU3       0.0559
     81 H28       -11.7971  -15.4531    8.8612 H           1 SU3       0.0285
     82 H29       -12.8615  -14.4682   10.0621 H           1 SU3       0.0285
     83 H30       -12.1223  -15.9278   11.9119 H           1 SU3       0.0285
     84 H31       -11.0534  -16.9108   10.7112 H           1 SU3       0.0285
     85 H32       -17.2933   -4.4439   13.2544 H           1 SU3       0.0287
     86 H33       -15.7242   -4.1850   12.4940 H           1 SU3       0.0287
     87 H34       -16.0563   -5.6133   15.1845 H           1 SU3       0.0267
     88 H35       -15.9041   -3.8641   15.0310 H           1 SU3       0.0267
     89 H36       -13.6892   -4.1245   13.9386 H           1 SU3       0.0271
     90 H37       -13.7985   -5.8720   14.0806 H           1 SU3       0.0271
     91 H38       -11.5672   -3.8008   15.2370 H           1 SU3       0.0617
     92 H39       -11.2646   -4.7445   16.6825 H           1 SU3       0.0617
     93 H40       -14.7987   -3.7146   17.1522 H           1 SU3       0.0236
     94 H41       -13.7608   -2.7201   16.1229 H           1 SU3       0.0236
     95 H42       -13.1266   -3.4190   17.6152 H           1 SU3       0.0236
     96 H43       -13.3301   -7.0466   16.2848 H           1 SU3       0.0236
     97 H44       -14.6726   -6.2136   17.0748 H           1 SU3       0.0236
     98 H45       -13.0551   -6.1076   17.7584 H           1 SU3       0.0236
     99 H46        -8.0412   -7.9022   14.7977 H           1 SU3       0.0237
    100 H47        -7.7201   -6.1737   14.5694 H           1 SU3       0.0237
    101 H48        -6.3911   -7.3339   14.5630 H           1 SU3       0.0237
    102 H49        -7.0701   -8.9559   11.3026 H           1 SU3       0.0237
    103 H50        -7.6588   -9.5655   12.8511 H           1 SU3       0.0237
    104 H51        -6.0324   -8.9070   12.7134 H           1 SU3       0.0237
    105 H52        -9.0026   -6.1799    9.0555 H           1 SU3       0.0553
    106 H53       -10.4396   -5.7408   10.0155 H           1 SU3       0.0553
@<TRIPOS>BOND
     1     1     3   2
     2     1     4   1
     3    21     1  am
     4     4     2   1
     5     2     7  am
     6     2    52   1
     7     4     5   1
     8     5     6   1
     9     6    52   1
    10     6    53   1
    11     7     8   2
    12     7     9   1
    13     9    10   1
    14     9    13   1
    15    10    11  am
    16    11    12   1
    17    11    14   2
    18    12    47   1
    19    13    20   1
    20    13    50   1
    21    13    51   1
    22    15    16   2
    23    15    17  am
    24    53    15   1
    25    17    26   1
    26    17    29   1
    27    18    19   1
    28    24    18   1
    29    22    21   1
    30    22    23   1
    31    22    24   1
    32    22    25   1
    33    23    35  am
    34    23    36   2
    35    24    25   1
    36    26    27   2
    37    27    28  ar
    38    27    30  ar
    39    28    29   2
    40    28    33  ar
    41    30    31  ar
    42    31    32  ar
    43    32    33  ar
    44    33    34   1
    45    34    43   1
    46    35    37  am
    47    37    38   1
    48    37    39   2
    49    37    40   2
    50    38    41   1
    51    38    42   1
    52    41    42   1
    53    43    44   1
    54    44    45   1
    55    45    46   1
    56    46    47   1
    57    46    48   1
    58    46    49   1
    59     4    54   1
    60     5    55   1
    61     5    56   1
    62     6    57   1
    63     9    58   1
    64    10    59   1
    65    18    60   1
    66    18    61   1
    67    19    62   1
    68    19    63   1
    69    19    64   1
    70    20    65   1
    71    20    66   1
    72    20    67   1
    73    21    68   1
    74    24    69   1
    75    25    70   1
    76    25    71   1
    77    26    72   1
    78    29    73   1
    79    30    74   1
    80    31    75   1
    81    32    76   1
    82    34    77   1
    83    34    78   1
    84    35    79   1
    85    38    80   1
    86    41    81   1
    87    41    82   1
    88    42    83   1
    89    42    84   1
    90    43    85   1
    91    43    86   1
    92    44    87   1
    93    44    88   1
    94    45    89   1
    95    45    90   1
    96    47    91   1
    97    47    92   1
    98    48    93   1
    99    48    94   1
   100    48    95   1
   101    49    96   1
   102    49    97   1
   103    49    98   1
   104    50    99   1
   105    50   100   1
   106    50   101   1
   107    51   102   1
   108    51   103   1
   109    51   104   1
   110    52   105   1
   111    52   106   1
@<TRIPOS>SUBSTRUCTURE
     1  SU3      1

