@<TRIPOS>MOLECULE
3su3_ligand_058
   106   111
SMALL
GAST_HUCK
****
This file was generated by PARSER (from files_GN.cpp)

@<TRIPOS>ATOM
      1 C         -13.5688   -8.8171   14.0334 C.2         1 SU3       0.2013
      2 N         -14.6988  -10.8075   13.1018 N.am        1 SU3      -0.2469
      3 O         -14.6618   -8.2598   14.0264 O.2         1 SU3      -0.3947
      4 CA        -13.4488  -10.1542   13.4527 C.3         1 SU3       0.1363
      5 CB        -12.6471  -10.0785   12.1253 C.3         1 SU3       0.0206
      6 CG        -13.2678  -11.1708   11.2432 C.3         1 SU3       0.1158
      7 CAF       -15.6883  -11.0866   13.9763 C.2         1 SU3       0.2070
      8 OAG       -15.4563  -10.9557   15.1720 O.2         1 SU3      -0.3942
      9 CAH       -17.0486  -11.5299   13.6206 C.3         1 SU3       0.1378
     10 NAI       -17.1935  -12.8860   14.0762 N.am        1 SU3      -0.2407
     11 CAJ       -17.5933  -13.9566   13.3589 C.2         1 SU3       0.3218
     12 OAK       -17.8428  -15.0959   14.0539 O.3         1 SU3      -0.2633
     13 CAL       -18.2497  -10.6183   14.1377 C.3         1 SU3       0.0025
     14 OAM       -17.8367  -13.8813   12.0289 O.2         1 SU3      -0.3774
     15 CAO       -11.4492  -12.9139   11.1458 C.2         1 SU3       0.4317
     16 OAP       -10.6018  -12.1015   10.4676 O.2         1 SU3      -0.3166
     17 NAQ       -11.0810  -14.1752   11.4811 N.am        1 SU3      -0.2080
     18 CAR       -13.9432   -5.0629   16.3573 C.3         1 SU3      -0.0516
     19 CAS       -15.0380   -4.7022   15.3321 C.3         1 SU3      -0.0651
     20 CAT       -19.4616  -10.7585   13.1491 C.3         1 SU3      -0.0558
     21 NAV       -12.4846   -8.1605   14.4328 N.am        1 SU3      -0.2737
     22 CAX       -12.4527   -6.7916   14.8536 C.3         1 SU3       0.1374
     23 CAY       -12.2246   -5.7802   13.8285 C.2         1 SU3       0.2444
     24 CAZ       -13.3240   -6.4595   16.0929 C.3         1 SU3      -0.0066
     25 CBA       -11.8001   -6.6079   16.2415 C.3         1 SU3      -0.0152
     26 CBB        -9.8973  -14.7660   11.1997 C.2         1 SU3       0.0383
     27 CBC        -9.9023  -16.0502   11.7275 C.ar        1 SU3      -0.0374
     28 CBD       -11.1356  -16.2422   12.3480 C.ar        1 SU3      -0.0293
     29 CBE       -11.8437  -15.0552   12.1690 C.2         1 SU3       0.0366
     30 CBF        -8.9299  -17.0649   11.7129 C.ar        1 SU3      -0.0689
     31 CBG        -9.2314  -18.2924   12.3345 C.ar        1 SU3      -0.0688
     32 CBH       -10.4819  -18.4895   12.9608 C.ar        1 SU3      -0.0606
     33 CBI       -11.4592  -17.4617   12.9874 C.ar        1 SU3      -0.0432
     34 CBJ       -12.7678  -17.6890   13.6549 C.3         1 SU3      -0.0194
     35 NBK       -12.9095   -5.8746   12.7016 N.am        1 SU3      -0.1552
     36 OBL       -11.4061   -4.8792   13.9951 O.2         1 SU3      -0.3404
     37 SBM       -12.9249   -4.7413   11.4517 S.o2        1 SU3       0.0645
     38 CBN       -13.8318   -3.2534   11.9403 C.3         1 SU3       0.1004
     39 OBO       -11.4365   -4.4321   10.9860 O.2         1 SU3      -0.1503
     40 OBP       -13.6140   -5.4472   10.2051 O.2         1 SU3      -0.1503
     41 CBQ       -14.3409   -2.2787   10.8659 C.3         1 SU3      -0.0268
     42 CBR       -15.3277   -3.1967   11.6049 C.3         1 SU3      -0.0268
     43 CBS       -13.7446  -18.4909   12.7532 C.3         1 SU3      -0.0433
     44 CBT       -15.1518  -18.7082   13.3780 C.3         1 SU3      -0.0507
     45 CBU       -16.1052  -17.4789   13.2718 C.3         1 SU3      -0.0453
     46 CBV       -17.5043  -17.5862   13.9867 C.3         1 SU3      -0.0072
     47 CBW       -18.3806  -16.3463   13.5906 C.3         1 SU3       0.0824
     48 CBX       -18.2755  -18.8750   13.5385 C.3         1 SU3      -0.0574
     49 CBY       -17.3376  -17.6140   15.5432 C.3         1 SU3      -0.0574
     50 CBZ       -18.7576  -11.0173   15.5670 C.3         1 SU3      -0.0558
     51 CCA       -17.8657   -9.0974   14.1794 C.3         1 SU3      -0.0558
     52 CD1       -14.7317  -11.1743   11.7151 C.3         1 SU3       0.0677
     53 OD2       -12.6863  -12.4604   11.4878 O.3         1 SU3      -0.2338
     54 H1        -12.9148  -10.8042   14.1560 H           1 SU3       0.0803
     55 H2        -11.5789  -10.2371   12.2854 H           1 SU3       0.0342
     56 H3        -12.7814   -9.1159   11.6185 H           1 SU3       0.0342
     57 H4        -13.2005  -10.9303   10.1772 H           1 SU3       0.0673
     58 H5        -17.1236  -11.5165   12.5340 H           1 SU3       0.0805
     59 H6        -17.0717  -13.0299   15.0277 H           1 SU3       0.1899
     60 H7        -14.3931   -5.0844   17.3537 H           1 SU3       0.0265
     61 H8        -13.1765   -4.2821   16.3505 H           1 SU3       0.0265
     62 H9        -15.5541   -3.7962   15.6581 H           1 SU3       0.0230
     63 H10       -15.7705   -5.5053   15.2553 H           1 SU3       0.0230
     64 H11       -14.5997   -4.5249   14.3481 H           1 SU3       0.0230
     65 H12       -20.3266  -10.1798   13.4841 H           1 SU3       0.0237
     66 H13       -19.7710  -11.8026   13.0605 H           1 SU3       0.0237
     67 H14       -19.1877  -10.3999   12.1503 H           1 SU3       0.0237
     68 H15       -11.6338   -8.6227   14.3976 H           1 SU3       0.1839
     69 H16       -13.8799   -7.3077   16.5076 H           1 SU3       0.0312
     70 H17       -11.2441   -5.6864   16.4227 H           1 SU3       0.0279
     71 H18       -11.4794   -7.5092   16.7669 H           1 SU3       0.0279
     72 H19        -9.1163  -14.3457   10.6921 H           1 SU3       0.0373
     73 H20       -12.7932  -14.8805   12.5092 H           1 SU3       0.0361
     74 H21        -8.0254  -16.9157   11.2584 H           1 SU3       0.0557
     75 H22        -8.5384  -19.0457   12.3308 H           1 SU3       0.0599
     76 H23       -10.6721  -19.3906   13.4035 H           1 SU3       0.0557
     77 H24       -13.2225  -16.7373   13.9280 H           1 SU3       0.0426
     78 H25       -12.6037  -18.2330   14.5889 H           1 SU3       0.0426
     79 H26       -13.5177   -6.6220   12.6056 H           1 SU3       0.2148
     80 H27       -13.5859   -2.8045   12.9052 H           1 SU3       0.0559
     81 H28       -14.1480   -2.5443    9.8219 H           1 SU3       0.0285
     82 H29       -14.3883   -1.2234   11.1533 H           1 SU3       0.0285
     83 H30       -15.9571   -2.7008   12.3479 H           1 SU3       0.0285
     84 H31       -15.7517   -3.9916   10.9866 H           1 SU3       0.0285
     85 H32       -13.3041  -19.4752   12.5636 H           1 SU3       0.0287
     86 H33       -13.8533  -17.9902   11.7862 H           1 SU3       0.0287
     87 H34       -15.0303  -19.0057   14.4213 H           1 SU3       0.0267
     88 H35       -15.6143  -19.5460   12.8494 H           1 SU3       0.0267
     89 H36       -16.2715  -17.2942   12.2074 H           1 SU3       0.0271
     90 H37       -15.5879  -16.6027   13.6662 H           1 SU3       0.0271
     91 H38       -18.5270  -16.3271   12.5073 H           1 SU3       0.0617
     92 H39       -19.3719  -16.4422   14.0445 H           1 SU3       0.0617
     93 H40       -17.7658  -19.7821   13.8728 H           1 SU3       0.0236
     94 H41       -18.3621  -18.9118   12.4494 H           1 SU3       0.0236
     95 H42       -19.2846  -18.8944   13.9608 H           1 SU3       0.0236
     96 H43       -16.7517  -16.7579   15.8859 H           1 SU3       0.0236
     97 H44       -16.8316  -18.5234   15.8743 H           1 SU3       0.0236
     98 H45       -18.3110  -17.5784   16.0394 H           1 SU3       0.0236
     99 H46       -17.9421  -10.9896   16.2912 H           1 SU3       0.0237
    100 H47       -19.1779  -12.0267   15.5672 H           1 SU3       0.0237
    101 H48       -19.5378  -10.3356   15.9173 H           1 SU3       0.0237
    102 H49       -17.4279   -8.7861   13.2273 H           1 SU3       0.0237
    103 H50       -17.1398   -8.9033   14.9748 H           1 SU3       0.0237
    104 H51       -18.7385   -8.4681   14.3756 H           1 SU3       0.0237
    105 H52       -15.3181  -10.4400   11.1545 H           1 SU3       0.0553
    106 H53       -15.1528  -12.1713   11.5551 H           1 SU3       0.0553
@<TRIPOS>BOND
     1     1     3   2
     2     1     4   1
     3    21     1  am
     4     4     2   1
     5     2     7  am
     6     2    52   1
     7     4     5   1
     8     5     6   1
     9     6    52   1
    10     6    53   1
    11     7     8   2
    12     7     9   1
    13     9    10   1
    14     9    13   1
    15    10    11  am
    16    11    12   1
    17    11    14   2
    18    12    47   1
    19    13    20   1
    20    13    50   1
    21    13    51   1
    22    15    16   2
    23    15    17  am
    24    53    15   1
    25    17    26   1
    26    17    29   1
    27    18    19   1
    28    24    18   1
    29    22    21   1
    30    22    23   1
    31    22    24   1
    32    22    25   1
    33    23    35  am
    34    23    36   2
    35    24    25   1
    36    26    27   2
    37    27    28  ar
    38    27    30  ar
    39    28    29   2
    40    28    33  ar
    41    30    31  ar
    42    31    32  ar
    43    32    33  ar
    44    33    34   1
    45    34    43   1
    46    35    37  am
    47    37    38   1
    48    37    39   2
    49    37    40   2
    50    38    41   1
    51    38    42   1
    52    41    42   1
    53    43    44   1
    54    44    45   1
    55    45    46   1
    56    46    47   1
    57    46    48   1
    58    46    49   1
    59     4    54   1
    60     5    55   1
    61     5    56   1
    62     6    57   1
    63     9    58   1
    64    10    59   1
    65    18    60   1
    66    18    61   1
    67    19    62   1
    68    19    63   1
    69    19    64   1
    70    20    65   1
    71    20    66   1
    72    20    67   1
    73    21    68   1
    74    24    69   1
    75    25    70   1
    76    25    71   1
    77    26    72   1
    78    29    73   1
    79    30    74   1
    80    31    75   1
    81    32    76   1
    82    34    77   1
    83    34    78   1
    84    35    79   1
    85    38    80   1
    86    41    81   1
    87    41    82   1
    88    42    83   1
    89    42    84   1
    90    43    85   1
    91    43    86   1
    92    44    87   1
    93    44    88   1
    94    45    89   1
    95    45    90   1
    96    47    91   1
    97    47    92   1
    98    48    93   1
    99    48    94   1
   100    48    95   1
   101    49    96   1
   102    49    97   1
   103    49    98   1
   104    50    99   1
   105    50   100   1
   106    50   101   1
   107    51   102   1
   108    51   103   1
   109    51   104   1
   110    52   105   1
   111    52   106   1
@<TRIPOS>SUBSTRUCTURE
     1  SU3      1

