@<TRIPOS>MOLECULE
3su3_ligand_072
   106   111
SMALL
GAST_HUCK
****
This file was generated by PARSER (from files_GN.cpp)

@<TRIPOS>ATOM
      1 C         -11.8788   -5.8439   10.0725 C.2         1 SU3       0.2013
      2 N         -14.2993   -5.3907   10.2247 N.am        1 SU3      -0.2469
      3 O         -11.0305   -5.0996    9.5817 O.2         1 SU3      -0.3947
      4 CA        -13.2148   -5.9987    9.4702 C.3         1 SU3       0.1363
      5 CB        -13.3513   -5.4154    8.0351 C.3         1 SU3       0.0206
      6 CG        -14.8207   -4.9826    7.9601 C.3         1 SU3       0.1158
      7 CAF       -14.6138   -5.7076   11.4947 C.2         1 SU3       0.2070
      8 OAG       -14.0674   -6.6933   11.9830 O.2         1 SU3      -0.3942
      9 CAH       -15.5470   -4.9933   12.3914 C.3         1 SU3       0.1378
     10 NAI       -16.4646   -5.9642   12.9386 N.am        1 SU3      -0.2407
     11 CAJ       -17.8158   -5.9458   12.8374 C.2         1 SU3       0.3218
     12 OAK       -18.5188   -6.8838   13.5240 O.3         1 SU3      -0.2633
     13 CAL       -14.8372   -4.0995   13.5090 C.3         1 SU3       0.0025
     14 OAM       -18.4725   -4.9765   12.1592 O.2         1 SU3      -0.3774
     15 CAO       -15.8862   -6.7029    6.4534 C.2         1 SU3       0.4317
     16 OAP       -15.2364   -6.2387    5.3583 O.2         1 SU3      -0.3166
     17 NAQ       -16.7264   -7.7668    6.3599 N.am        1 SU3      -0.2080
     18 CAR        -8.2940   -5.1491   12.7897 C.3         1 SU3      -0.0516
     19 CAS        -7.7748   -5.3701   14.2314 C.3         1 SU3      -0.0651
     20 CAT       -14.6305   -2.6482   12.9539 C.3         1 SU3      -0.0558
     21 NAV       -11.5470   -6.6081   11.1074 N.am        1 SU3      -0.2737
     22 CAX       -10.2593   -6.7167   11.7391 C.3         1 SU3       0.1374
     23 CAY        -9.4671   -7.8932   11.3602 C.2         1 SU3       0.2444
     24 CAZ        -9.8013   -5.4930   12.5895 C.3         1 SU3      -0.0066
     25 CBA       -10.4566   -6.7044   13.2794 C.3         1 SU3      -0.0152
     26 CBB       -17.0176   -8.4541    5.2304 C.2         1 SU3       0.0383
     27 CBC       -17.9064   -9.4769    5.5439 C.ar        1 SU3      -0.0374
     28 CBD       -18.1561   -9.4084    6.9137 C.ar        1 SU3      -0.0293
     29 CBE       -17.4116   -8.3278    7.3847 C.2         1 SU3       0.0366
     30 CBF       -18.5116  -10.4548    4.7372 C.ar        1 SU3      -0.0689
     31 CBG       -19.3878  -11.3754    5.3426 C.ar        1 SU3      -0.0688
     32 CBH       -19.6434  -11.3117    6.7296 C.ar        1 SU3      -0.0606
     33 CBI       -19.0273  -10.3287    7.5467 C.ar        1 SU3      -0.0432
     34 CBJ       -19.3120  -10.2856    9.0059 C.3         1 SU3      -0.0194
     35 NBK        -9.9666   -8.7490   10.4770 N.am        1 SU3      -0.1552
     36 OBL        -8.3814   -8.1208   11.8766 O.2         1 SU3      -0.3404
     37 SBM        -9.3438  -10.2576   10.0585 S.o2        1 SU3       0.0645
     38 CBN       -10.2899  -11.6367   10.7352 C.3         1 SU3       0.1004
     39 OBO        -9.3747  -10.3314    8.4689 O.2         1 SU3      -0.1503
     40 OBP        -7.7987  -10.3924   10.4162 O.2         1 SU3      -0.1503
     41 CBQ       -11.5090  -11.3552   11.6330 C.3         1 SU3      -0.0268
     42 CBR       -11.7160  -11.7916   10.1757 C.3         1 SU3      -0.0268
     43 CBS       -20.6894   -9.6354    9.3080 C.3         1 SU3      -0.0433
     44 CBT       -21.0387   -9.5519   10.8201 C.3         1 SU3      -0.0507
     45 CBU       -20.3199   -8.4009   11.5916 C.3         1 SU3      -0.0453
     46 CBV       -20.5748   -8.3000   13.1428 C.3         1 SU3      -0.0072
     47 CBW       -19.9459   -6.9688   13.6845 C.3         1 SU3       0.0824
     48 CBX       -22.1062   -8.2540   13.4653 C.3         1 SU3      -0.0574
     49 CBY       -19.9302   -9.5108   13.8941 C.3         1 SU3      -0.0574
     50 CBZ       -15.7175   -3.9790   14.7999 C.3         1 SU3      -0.0558
     51 CCA       -13.4325   -4.6267   13.9626 C.3         1 SU3      -0.0558
     52 CD1       -15.0837   -4.5147    9.4006 C.3         1 SU3       0.0677
     53 OD2       -15.6909   -6.0853    7.6508 O.3         1 SU3      -0.2338
     54 H1        -13.4268   -7.0743    9.3911 H           1 SU3       0.0803
     55 H2        -13.1020   -6.1476    7.2660 H           1 SU3       0.0342
     56 H3        -12.7330   -4.5271    7.8842 H           1 SU3       0.0342
     57 H4        -14.9818   -4.1670    7.2493 H           1 SU3       0.0673
     58 H5        -16.1381   -4.2988   11.7976 H           1 SU3       0.0805
     59 H6        -16.0795   -6.6772   13.4707 H           1 SU3       0.1899
     60 H7         -7.6646   -5.7055   12.0892 H           1 SU3       0.0265
     61 H8         -8.1669   -4.0913   12.5469 H           1 SU3       0.0265
     62 H9         -6.7980   -4.8862   14.3479 H           1 SU3       0.0230
     63 H10        -7.6602   -6.4411   14.4385 H           1 SU3       0.0230
     64 H11        -8.4680   -4.9410   14.9629 H           1 SU3       0.0230
     65 H12       -14.1141   -2.0129   13.6787 H           1 SU3       0.0237
     66 H13       -15.5921   -2.1777   12.7290 H           1 SU3       0.0237
     67 H14       -14.0392   -2.6689   12.0353 H           1 SU3       0.0237
     68 H15       -12.2238   -7.2266   11.4306 H           1 SU3       0.1839
     69 H16       -10.4717   -4.6281   12.5479 H           1 SU3       0.0312
     70 H17        -9.7719   -7.2769   13.9178 H           1 SU3       0.0279
     71 H18       -11.4679   -6.5103   13.6692 H           1 SU3       0.0279
     72 H19       -16.6535   -8.2622    4.2939 H           1 SU3       0.0373
     73 H20       -17.3874   -8.0095    8.3562 H           1 SU3       0.0361
     74 H21       -18.3215  -10.4965    3.7325 H           1 SU3       0.0557
     75 H22       -19.8405  -12.0940    4.7740 H           1 SU3       0.0599
     76 H23       -20.2822  -11.9933    7.1416 H           1 SU3       0.0557
     77 H24       -18.5291   -9.7347    9.5278 H           1 SU3       0.0426
     78 H25       -19.2929  -11.3043    9.4028 H           1 SU3       0.0426
     79 H26       -10.8246   -8.5254   10.0776 H           1 SU3       0.2148
     80 H27        -9.7805  -12.5888   10.8871 H           1 SU3       0.0559
     81 H28       -11.7640  -10.3132   11.8372 H           1 SU3       0.0285
     82 H29       -11.7450  -12.1163   12.3770 H           1 SU3       0.0285
     83 H30       -12.0754  -12.8129   10.0508 H           1 SU3       0.0285
     84 H31       -12.0933  -11.0079    9.5157 H           1 SU3       0.0285
     85 H32       -21.4643  -10.2330    8.8181 H           1 SU3       0.0287
     86 H33       -20.7250   -8.6327    8.8729 H           1 SU3       0.0287
     87 H34       -20.8194  -10.5143   11.2862 H           1 SU3       0.0267
     88 H35       -22.1167   -9.3894   10.8903 H           1 SU3       0.0267
     89 H36       -20.6281   -7.4605   11.1245 H           1 SU3       0.0271
     90 H37       -19.2445   -8.4965   11.4286 H           1 SU3       0.0271
     91 H38       -20.4398   -6.1184   13.2090 H           1 SU3       0.0617
     92 H39       -20.1358   -6.8803   14.7556 H           1 SU3       0.0617
     93 H40       -22.5953   -9.1965   13.2107 H           1 SU3       0.0236
     94 H41       -22.5946   -7.4519   12.9052 H           1 SU3       0.0236
     95 H42       -22.2780   -8.0759   14.5296 H           1 SU3       0.0236
     96 H43       -18.8691   -9.5979   13.6507 H           1 SU3       0.0236
     97 H44       -20.4184  -10.4488   13.6219 H           1 SU3       0.0236
     98 H45       -20.0219   -9.3908   14.9763 H           1 SU3       0.0236
     99 H46       -15.8052   -4.9484   15.2935 H           1 SU3       0.0237
    100 H47       -16.7189   -3.6325   14.5464 H           1 SU3       0.0237
    101 H48       -15.2843   -3.2753   15.5168 H           1 SU3       0.0237
    102 H49       -12.7309   -4.6233   13.1240 H           1 SU3       0.0237
    103 H50       -13.5110   -5.6459   14.3499 H           1 SU3       0.0237
    104 H51       -13.0023   -3.9928   14.7423 H           1 SU3       0.0237
    105 H52       -14.7527   -3.4818    9.5410 H           1 SU3       0.0553
    106 H53       -16.1585   -4.5802    9.5916 H           1 SU3       0.0553
@<TRIPOS>BOND
     1     1     3   2
     2     1     4   1
     3    21     1  am
     4     4     2   1
     5     2     7  am
     6     2    52   1
     7     4     5   1
     8     5     6   1
     9     6    52   1
    10     6    53   1
    11     7     8   2
    12     7     9   1
    13     9    10   1
    14     9    13   1
    15    10    11  am
    16    11    12   1
    17    11    14   2
    18    12    47   1
    19    13    20   1
    20    13    50   1
    21    13    51   1
    22    15    16   2
    23    15    17  am
    24    53    15   1
    25    17    26   1
    26    17    29   1
    27    18    19   1
    28    24    18   1
    29    22    21   1
    30    22    23   1
    31    22    24   1
    32    22    25   1
    33    23    35  am
    34    23    36   2
    35    24    25   1
    36    26    27   2
    37    27    28  ar
    38    27    30  ar
    39    28    29   2
    40    28    33  ar
    41    30    31  ar
    42    31    32  ar
    43    32    33  ar
    44    33    34   1
    45    34    43   1
    46    35    37  am
    47    37    38   1
    48    37    39   2
    49    37    40   2
    50    38    41   1
    51    38    42   1
    52    41    42   1
    53    43    44   1
    54    44    45   1
    55    45    46   1
    56    46    47   1
    57    46    48   1
    58    46    49   1
    59     4    54   1
    60     5    55   1
    61     5    56   1
    62     6    57   1
    63     9    58   1
    64    10    59   1
    65    18    60   1
    66    18    61   1
    67    19    62   1
    68    19    63   1
    69    19    64   1
    70    20    65   1
    71    20    66   1
    72    20    67   1
    73    21    68   1
    74    24    69   1
    75    25    70   1
    76    25    71   1
    77    26    72   1
    78    29    73   1
    79    30    74   1
    80    31    75   1
    81    32    76   1
    82    34    77   1
    83    34    78   1
    84    35    79   1
    85    38    80   1
    86    41    81   1
    87    41    82   1
    88    42    83   1
    89    42    84   1
    90    43    85   1
    91    43    86   1
    92    44    87   1
    93    44    88   1
    94    45    89   1
    95    45    90   1
    96    47    91   1
    97    47    92   1
    98    48    93   1
    99    48    94   1
   100    48    95   1
   101    49    96   1
   102    49    97   1
   103    49    98   1
   104    50    99   1
   105    50   100   1
   106    50   101   1
   107    51   102   1
   108    51   103   1
   109    51   104   1
   110    52   105   1
   111    52   106   1
@<TRIPOS>SUBSTRUCTURE
     1  SU3      1

