@<TRIPOS>MOLECULE
3su3_ligand_066
   106   111
SMALL
GAST_HUCK
****
This file was generated by PARSER (from files_GN.cpp)

@<TRIPOS>ATOM
      1 C          -6.2761   -2.1102   11.3324 C.2         1 SU3       0.2013
      2 N          -5.9963   -0.1916    9.7724 N.am        1 SU3      -0.2469
      3 O          -6.2509   -2.5374   12.4811 O.2         1 SU3      -0.3947
      4 CA         -5.9558   -0.6979   11.1308 C.3         1 SU3       0.1363
      5 CB         -6.9526    0.1901   11.9153 C.3         1 SU3       0.0206
      6 CG         -7.0250    1.4751   11.0814 C.3         1 SU3       0.1158
      7 CAF        -5.2120   -0.6592    8.7782 C.2         1 SU3       0.2070
      8 OAG        -4.3166   -1.4427    9.0781 O.2         1 SU3      -0.3942
      9 CAH        -5.2985   -0.3020    7.3422 C.3         1 SU3       0.1378
     10 NAI        -4.0498    0.3096    6.9452 N.am        1 SU3      -0.2407
     11 CAJ        -3.9192    1.5045    6.3144 C.2         1 SU3       0.3218
     12 OAK        -2.7085    1.8041    5.7770 O.3         1 SU3      -0.2633
     13 CAL        -5.7099   -1.4819    6.3579 C.3         1 SU3       0.0025
     14 OAM        -4.9846    2.3171    6.1016 O.2         1 SU3      -0.3774
     15 CAO        -5.7151    3.1105   12.4827 C.2         1 SU3       0.4317
     16 OAP        -6.6115    3.0633   13.4994 O.2         1 SU3      -0.3166
     17 NAQ        -4.6142    3.9007   12.5571 N.am        1 SU3      -0.2080
     18 CAR        -8.8195   -5.7994    8.8296 C.3         1 SU3      -0.0516
     19 CAS       -10.2112   -5.1295    8.7317 C.3         1 SU3      -0.0651
     20 CAT        -7.2622   -1.6937    6.4267 C.3         1 SU3      -0.0558
     21 NAV        -6.7386   -2.8652   10.3487 N.am        1 SU3      -0.2737
     22 CAX        -7.2378   -4.2086   10.4519 C.3         1 SU3       0.1374
     23 CAY        -8.1127   -4.5492   11.5691 C.2         1 SU3       0.2444
     24 CAZ        -7.7036   -4.7382    9.0620 C.3         1 SU3      -0.0066
     25 CBA        -6.4172   -5.2809    9.7085 C.3         1 SU3      -0.0152
     26 CBB        -4.2907    4.7189   13.5865 C.2         1 SU3       0.0383
     27 CBC        -3.1109    5.3830   13.2766 C.ar        1 SU3      -0.0374
     28 CBD        -2.6953    4.9351   12.0235 C.ar        1 SU3      -0.0293
     29 CBE        -3.6590    4.0183   11.6069 C.2         1 SU3       0.0366
     30 CBF        -2.3803    6.3464   13.9912 C.ar        1 SU3      -0.0689
     31 CBG        -1.2052    6.8627   13.4085 C.ar        1 SU3      -0.0688
     32 CBH        -0.7772    6.4097   12.1445 C.ar        1 SU3      -0.0606
     33 CBI        -1.5115    5.4267   11.4270 C.ar        1 SU3      -0.0432
     34 CBJ        -1.0242    4.9531   10.1024 C.3         1 SU3      -0.0194
     35 NBK        -7.8076   -5.5487   12.3833 N.am        1 SU3      -0.1552
     36 OBL        -9.1163   -3.8617   11.7218 O.2         1 SU3      -0.3404
     37 SBM        -8.6830   -6.0306   13.7444 S.o2        1 SU3       0.0645
     38 CBN       -10.3849   -6.6445   13.6222 C.3         1 SU3       0.1004
     39 OBO        -7.8386   -7.2544   14.3099 O.2         1 SU3      -0.1503
     40 OBP        -8.5534   -4.9913   14.9413 O.2         1 SU3      -0.1503
     41 CBQ       -11.2708   -6.2514   12.4289 C.3         1 SU3      -0.0268
     42 CBR       -10.6906   -7.6723   12.5245 C.3         1 SU3      -0.0268
     43 CBS        -1.3198    5.9711    8.9679 C.3         1 SU3      -0.0433
     44 CBT        -0.8358    5.5117    7.5634 C.3         1 SU3      -0.0507
     45 CBU        -1.7448    4.4460    6.8830 C.3         1 SU3      -0.0453
     46 CBV        -1.2400    3.8286    5.5234 C.3         1 SU3      -0.0072
     47 CBW        -2.3682    2.9179    4.9290 C.3         1 SU3       0.0824
     48 CBX        -0.9232    4.9497    4.4802 C.3         1 SU3      -0.0574
     49 CBY         0.0379    2.9581    5.7443 C.3         1 SU3      -0.0574
     50 CBZ        -5.3690   -1.1268    4.8651 C.3         1 SU3      -0.0558
     51 CCA        -5.0072   -2.8461    6.6879 C.3         1 SU3      -0.0558
     52 CD1        -6.8607    0.9475    9.6466 C.3         1 SU3       0.0677
     53 OD2        -5.9371    2.3661   11.3651 O.3         1 SU3      -0.2338
     54 H1         -4.9453   -0.5168   11.5134 H           1 SU3       0.0803
     55 H2         -6.6108    0.3744   12.9363 H           1 SU3       0.0342
     56 H3         -7.9529   -0.2559   11.9602 H           1 SU3       0.0342
     57 H4         -7.9791    1.9932   11.2044 H           1 SU3       0.0673
     58 H5         -6.0869    0.4418    7.2163 H           1 SU3       0.0805
     59 H6         -3.2480   -0.2329    7.0338 H           1 SU3       0.1899
     60 H7         -8.6138   -6.3204    7.8868 H           1 SU3       0.0265
     61 H8         -8.8311   -6.5490    9.6311 H           1 SU3       0.0265
     62 H9        -10.9701   -5.8952    8.5346 H           1 SU3       0.0230
     63 H10       -10.2222   -4.3955    7.9145 H           1 SU3       0.0230
     64 H11       -10.4526   -4.6246    9.6746 H           1 SU3       0.0230
     65 H12        -7.5677   -2.5875    5.8761 H           1 SU3       0.0237
     66 H13        -7.7933   -0.8361    6.0059 H           1 SU3       0.0237
     67 H14        -7.5818   -1.8009    7.4617 H           1 SU3       0.0237
     68 H15        -6.7585   -2.4647    9.4695 H           1 SU3       0.1839
     69 H16        -7.4515   -4.1298    8.1859 H           1 SU3       0.0312
     70 H17        -6.4593   -6.3020   10.1069 H           1 SU3       0.0279
     71 H18        -5.4902   -4.9279    9.2425 H           1 SU3       0.0279
     72 H19        -4.8245    4.8506   14.4488 H           1 SU3       0.0373
     73 H20        -3.6490    3.5247   10.7134 H           1 SU3       0.0361
     74 H21        -2.6946    6.6713   14.9072 H           1 SU3       0.0557
     75 H22        -0.6595    7.5696   13.9087 H           1 SU3       0.0599
     76 H23         0.0839    6.7969   11.7473 H           1 SU3       0.0557
     77 H24        -1.4806    3.9931    9.8590 H           1 SU3       0.0426
     78 H25         0.0545    4.7752   10.1621 H           1 SU3       0.0426
     79 H26        -6.9947   -6.0456   12.1945 H           1 SU3       0.2148
     80 H27       -10.9154   -6.8361   14.5551 H           1 SU3       0.0559
     81 H28       -10.8218   -5.6331   11.6496 H           1 SU3       0.0285
     82 H29       -12.3457   -6.1667   12.6304 H           1 SU3       0.0285
     83 H30       -11.4150   -8.4492   12.7802 H           1 SU3       0.0285
     84 H31        -9.9023   -7.8967   11.8031 H           1 SU3       0.0285
     85 H32        -0.8112    6.9087    9.2081 H           1 SU3       0.0287
     86 H33        -2.3925    6.1787    8.9309 H           1 SU3       0.0287
     87 H34         0.1865    5.1408    7.6530 H           1 SU3       0.0267
     88 H35        -0.8080    6.3979    6.9260 H           1 SU3       0.0267
     89 H36        -2.7192    4.9138    6.7144 H           1 SU3       0.0271
     90 H37        -1.9071    3.6272    7.5862 H           1 SU3       0.0271
     91 H38        -3.2528    3.5233    4.7082 H           1 SU3       0.0617
     92 H39        -2.0378    2.4917    3.9780 H           1 SU3       0.0617
     93 H40        -0.0785    5.5594    4.8001 H           1 SU3       0.0236
     94 H41        -1.7858    5.6049    4.3439 H           1 SU3       0.0236
     95 H42        -0.6669    4.5189    3.5099 H           1 SU3       0.0236
     96 H43        -0.1323    2.1978    6.5096 H           1 SU3       0.0236
     97 H44         0.8821    3.5702    6.0588 H           1 SU3       0.0236
     98 H45         0.3228    2.4515    4.8200 H           1 SU3       0.0236
     99 H46        -4.2839   -1.0600    4.7260 H           1 SU3       0.0237
    100 H47        -5.8184   -0.1670    4.5837 H           1 SU3       0.0237
    101 H48        -5.7477   -1.8965    4.1805 H           1 SU3       0.0237
    102 H49        -5.4178   -3.2813    7.6079 H           1 SU3       0.0237
    103 H50        -3.9246   -2.7068    6.8024 H           1 SU3       0.0237
    104 H51        -5.1743   -3.5780    5.8841 H           1 SU3       0.0237
    105 H52        -7.8215    0.6332    9.2278 H           1 SU3       0.0553
    106 H53        -6.4393    1.7428    9.0231 H           1 SU3       0.0553
@<TRIPOS>BOND
     1     1     3   2
     2     1     4   1
     3    21     1  am
     4     4     2   1
     5     2     7  am
     6     2    52   1
     7     4     5   1
     8     5     6   1
     9     6    52   1
    10     6    53   1
    11     7     8   2
    12     7     9   1
    13     9    10   1
    14     9    13   1
    15    10    11  am
    16    11    12   1
    17    11    14   2
    18    12    47   1
    19    13    20   1
    20    13    50   1
    21    13    51   1
    22    15    16   2
    23    15    17  am
    24    53    15   1
    25    17    26   1
    26    17    29   1
    27    18    19   1
    28    24    18   1
    29    22    21   1
    30    22    23   1
    31    22    24   1
    32    22    25   1
    33    23    35  am
    34    23    36   2
    35    24    25   1
    36    26    27   2
    37    27    28  ar
    38    27    30  ar
    39    28    29   2
    40    28    33  ar
    41    30    31  ar
    42    31    32  ar
    43    32    33  ar
    44    33    34   1
    45    34    43   1
    46    35    37  am
    47    37    38   1
    48    37    39   2
    49    37    40   2
    50    38    41   1
    51    38    42   1
    52    41    42   1
    53    43    44   1
    54    44    45   1
    55    45    46   1
    56    46    47   1
    57    46    48   1
    58    46    49   1
    59     4    54   1
    60     5    55   1
    61     5    56   1
    62     6    57   1
    63     9    58   1
    64    10    59   1
    65    18    60   1
    66    18    61   1
    67    19    62   1
    68    19    63   1
    69    19    64   1
    70    20    65   1
    71    20    66   1
    72    20    67   1
    73    21    68   1
    74    24    69   1
    75    25    70   1
    76    25    71   1
    77    26    72   1
    78    29    73   1
    79    30    74   1
    80    31    75   1
    81    32    76   1
    82    34    77   1
    83    34    78   1
    84    35    79   1
    85    38    80   1
    86    41    81   1
    87    41    82   1
    88    42    83   1
    89    42    84   1
    90    43    85   1
    91    43    86   1
    92    44    87   1
    93    44    88   1
    94    45    89   1
    95    45    90   1
    96    47    91   1
    97    47    92   1
    98    48    93   1
    99    48    94   1
   100    48    95   1
   101    49    96   1
   102    49    97   1
   103    49    98   1
   104    50    99   1
   105    50   100   1
   106    50   101   1
   107    51   102   1
   108    51   103   1
   109    51   104   1
   110    52   105   1
   111    52   106   1
@<TRIPOS>SUBSTRUCTURE
     1  SU3      1

