@<TRIPOS>MOLECULE
3su3_ligand_074
   106   111
SMALL
GAST_HUCK
****
This file was generated by PARSER (from files_GN.cpp)

@<TRIPOS>ATOM
      1 C         -15.1544   -5.9036   10.5040 C.2         1 SU3       0.2013
      2 N         -13.1920   -6.5353    9.0865 N.am        1 SU3      -0.2469
      3 O         -16.2514   -6.3809   10.7863 O.2         1 SU3      -0.3947
      4 CA        -14.5837   -6.0968    9.1555 C.3         1 SU3       0.1363
      5 CB        -15.3541   -7.1548    8.3091 C.3         1 SU3       0.0206
      6 CG        -14.2809   -7.7945    7.4216 C.3         1 SU3       0.1158
      7 CAF       -12.1330   -5.7896    9.4536 C.2         1 SU3       0.2070
      8 OAG       -12.3213   -4.5919    9.6536 O.2         1 SU3      -0.3942
      9 CAH       -10.7497   -6.2655    9.6730 C.3         1 SU3       0.1378
     10 NAI        -9.8382   -5.3055    9.1002 N.am        1 SU3      -0.2407
     11 CAJ        -8.9216   -5.5209    8.1311 C.2         1 SU3       0.3218
     12 OAK        -8.1238   -4.4754    7.7844 O.3         1 SU3      -0.2633
     13 CAL       -10.3998   -6.5705   11.1893 C.3         1 SU3       0.0025
     14 OAM        -8.7607   -6.7397    7.5597 O.2         1 SU3      -0.3774
     15 CAO       -14.8190   -6.8619    5.1527 C.2         1 SU3       0.4317
     16 OAP       -15.9699   -7.5725    5.0620 O.2         1 SU3      -0.3166
     17 NAQ       -14.4607   -5.9986    4.1704 N.am        1 SU3      -0.2080
     18 CAR       -14.0859   -3.3925   14.8947 C.3         1 SU3      -0.0516
     19 CAS       -12.7910   -4.0790   15.3755 C.3         1 SU3      -0.0651
     20 CAT       -11.3196   -7.7212   11.7222 C.3         1 SU3      -0.0558
     21 NAV       -14.5700   -5.1251   11.4029 N.am        1 SU3      -0.2737
     22 CAX       -15.0070   -4.8788   12.7539 C.3         1 SU3       0.1374
     23 CAY       -15.2222   -6.0190   13.6443 C.2         1 SU3       0.2444
     24 CAZ       -14.3273   -3.6285   13.3774 C.3         1 SU3      -0.0066
     25 CBA       -15.7943   -3.5652   12.9294 C.3         1 SU3      -0.0152
     26 CBB       -15.1502   -5.7591    3.0325 C.2         1 SU3       0.0383
     27 CBC       -14.4781   -4.7917    2.2981 C.ar        1 SU3      -0.0374
     28 CBD       -13.3415   -4.4289    3.0202 C.ar        1 SU3      -0.0293
     29 CBE       -13.3615   -5.2098    4.1763 C.2         1 SU3       0.0366
     30 CBF       -14.7760   -4.2027    1.0581 C.ar        1 SU3      -0.0689
     31 CBG       -13.8947   -3.2309    0.5503 C.ar        1 SU3      -0.0688
     32 CBH       -12.7425   -2.8595    1.2776 C.ar        1 SU3      -0.0606
     33 CBI       -12.4446   -3.4483    2.5343 C.ar        1 SU3      -0.0432
     34 CBJ       -11.2220   -3.0446    3.2820 C.3         1 SU3      -0.0194
     35 NBK       -14.7350   -7.1950   13.2905 N.am        1 SU3      -0.1552
     36 OBL       -15.8971   -5.8989   14.6615 O.2         1 SU3      -0.3404
     37 SBM       -14.8595   -8.6404   14.1511 S.o2        1 SU3       0.0645
     38 CBN       -13.7425   -8.7434   15.5658 C.3         1 SU3       0.1004
     39 OBO       -16.3620   -8.9740   14.5549 O.2         1 SU3      -0.1503
     40 OBP       -14.4695   -9.7991   13.1350 O.2         1 SU3      -0.1503
     41 CBQ       -12.4288   -7.9511   15.4847 C.3         1 SU3      -0.0268
     42 CBR       -13.5578   -7.4715   16.4072 C.3         1 SU3      -0.0268
     43 CBS        -9.9479   -3.7314    2.7187 C.3         1 SU3      -0.0433
     44 CBT        -8.6312   -3.3190    3.4331 C.3         1 SU3      -0.0507
     45 CBU        -8.4024   -4.0020    4.8163 C.3         1 SU3      -0.0453
     46 CBV        -7.1517   -3.5413    5.6532 C.3         1 SU3      -0.0072
     47 CBW        -6.9926   -4.4877    6.8945 C.3         1 SU3       0.0824
     48 CBX        -5.8359   -3.6398    4.8107 C.3         1 SU3      -0.0574
     49 CBY        -7.3194   -2.0670    6.1471 C.3         1 SU3      -0.0574
     50 CBZ        -8.9210   -7.0723   11.3148 C.3         1 SU3      -0.0558
     51 CCA       -10.5574   -5.3210   12.1204 C.3         1 SU3      -0.0558
     52 CD1       -13.0575   -7.7625    8.3489 C.3         1 SU3       0.0677
     53 OD2       -14.0301   -6.9994    6.2530 O.3         1 SU3      -0.2338
     54 H1        -14.6612   -5.1383    8.6307 H           1 SU3       0.0803
     55 H2        -16.1571   -6.6981    7.7254 H           1 SU3       0.0342
     56 H3        -15.7850   -7.9485    8.9286 H           1 SU3       0.0342
     57 H4        -14.5283   -8.8220    7.1371 H           1 SU3       0.0673
     58 H5        -10.6064   -7.2109    9.1515 H           1 SU3       0.0805
     59 H6         -9.8575   -4.4172    9.4851 H           1 SU3       0.1899
     60 H7        -13.9941   -2.3178   15.0688 H           1 SU3       0.0265
     61 H8        -14.9237   -3.7542   15.4934 H           1 SU3       0.0265
     62 H9        -12.6732   -3.9412   16.4526 H           1 SU3       0.0230
     63 H10       -11.9224   -3.6536   14.8746 H           1 SU3       0.0230
     64 H11       -12.8230   -5.1446   15.1582 H           1 SU3       0.0230
     65 H12       -11.0921   -7.9570   12.7631 H           1 SU3       0.0237
     66 H13       -11.1821   -8.6331   11.1365 H           1 SU3       0.0237
     67 H14       -12.3691   -7.4392   11.6589 H           1 SU3       0.0237
     68 H15       -13.7628   -4.6688   11.1334 H           1 SU3       0.1839
     69 H16       -13.6783   -3.0548   12.7086 H           1 SU3       0.0312
     70 H17       -16.5533   -3.5509   13.7139 H           1 SU3       0.0279
     71 H18       -15.9779   -2.9871   12.0204 H           1 SU3       0.0279
     72 H19       -16.0277   -6.2027    2.7490 H           1 SU3       0.0373
     73 H20       -12.6575   -5.1777    4.9171 H           1 SU3       0.0361
     74 H21       -15.6115   -4.4777    0.5371 H           1 SU3       0.0557
     75 H22       -14.0907   -2.7924   -0.3531 H           1 SU3       0.0599
     76 H23       -12.1191   -2.1509    0.8818 H           1 SU3       0.0557
     77 H24       -11.3275   -3.2898    4.3385 H           1 SU3       0.0426
     78 H25       -11.1086   -1.9587    3.2247 H           1 SU3       0.0426
     79 H26       -14.2298   -7.2322   12.4668 H           1 SU3       0.2148
     80 H27       -13.6775   -9.6882   16.1070 H           1 SU3       0.0559
     81 H28       -12.2651   -7.3494   14.5918 H           1 SU3       0.0285
     82 H29       -11.5666   -8.3703   16.0051 H           1 SU3       0.0285
     83 H30       -13.3629   -7.6038   17.4711 H           1 SU3       0.0285
     84 H31       -14.1011   -6.5855   16.0818 H           1 SU3       0.0285
     85 H32        -9.8524   -3.4647    1.6617 H           1 SU3       0.0287
     86 H33       -10.0635   -4.8180    2.7729 H           1 SU3       0.0287
     87 H34        -8.6146   -2.2330    3.5392 H           1 SU3       0.0267
     88 H35        -7.8049   -3.5968    2.7737 H           1 SU3       0.0267
     89 H36        -8.3253   -5.0778    4.6327 H           1 SU3       0.0271
     90 H37        -9.2952   -3.8502    5.4267 H           1 SU3       0.0271
     91 H38        -6.7850   -5.5060    6.5529 H           1 SU3       0.0617
     92 H39        -6.1311   -4.1779    7.4909 H           1 SU3       0.0617
     93 H40        -5.8447   -2.9328    3.9797 H           1 SU3       0.0236
     94 H41        -5.7125   -4.6454    4.4029 H           1 SU3       0.0236
     95 H42        -4.9621   -3.4111    5.4247 H           1 SU3       0.0236
     96 H43        -8.2607   -1.9396    6.6835 H           1 SU3       0.0236
     97 H44        -7.3128   -1.3668    5.3107 H           1 SU3       0.0236
     98 H45        -6.5048   -1.7866    6.8182 H           1 SU3       0.0236
     99 H46        -8.2152   -6.2885   11.0309 H           1 SU3       0.0237
    100 H47        -8.7521   -7.9352   10.6682 H           1 SU3       0.0237
    101 H48        -8.6892   -7.3703   12.3403 H           1 SU3       0.0237
    102 H49       -11.6015   -5.0187   12.1970 H           1 SU3       0.0237
    103 H50        -9.9819   -4.4761   11.7362 H           1 SU3       0.0237
    104 H51       -10.2042   -5.5390   13.1309 H           1 SU3       0.0237
    105 H52       -13.0671   -8.6110    9.0403 H           1 SU3       0.0553
    106 H53       -12.1627   -7.8182    7.7228 H           1 SU3       0.0553
@<TRIPOS>BOND
     1     1     3   2
     2     1     4   1
     3    21     1  am
     4     4     2   1
     5     2     7  am
     6     2    52   1
     7     4     5   1
     8     5     6   1
     9     6    52   1
    10     6    53   1
    11     7     8   2
    12     7     9   1
    13     9    10   1
    14     9    13   1
    15    10    11  am
    16    11    12   1
    17    11    14   2
    18    12    47   1
    19    13    20   1
    20    13    50   1
    21    13    51   1
    22    15    16   2
    23    15    17  am
    24    53    15   1
    25    17    26   1
    26    17    29   1
    27    18    19   1
    28    24    18   1
    29    22    21   1
    30    22    23   1
    31    22    24   1
    32    22    25   1
    33    23    35  am
    34    23    36   2
    35    24    25   1
    36    26    27   2
    37    27    28  ar
    38    27    30  ar
    39    28    29   2
    40    28    33  ar
    41    30    31  ar
    42    31    32  ar
    43    32    33  ar
    44    33    34   1
    45    34    43   1
    46    35    37  am
    47    37    38   1
    48    37    39   2
    49    37    40   2
    50    38    41   1
    51    38    42   1
    52    41    42   1
    53    43    44   1
    54    44    45   1
    55    45    46   1
    56    46    47   1
    57    46    48   1
    58    46    49   1
    59     4    54   1
    60     5    55   1
    61     5    56   1
    62     6    57   1
    63     9    58   1
    64    10    59   1
    65    18    60   1
    66    18    61   1
    67    19    62   1
    68    19    63   1
    69    19    64   1
    70    20    65   1
    71    20    66   1
    72    20    67   1
    73    21    68   1
    74    24    69   1
    75    25    70   1
    76    25    71   1
    77    26    72   1
    78    29    73   1
    79    30    74   1
    80    31    75   1
    81    32    76   1
    82    34    77   1
    83    34    78   1
    84    35    79   1
    85    38    80   1
    86    41    81   1
    87    41    82   1
    88    42    83   1
    89    42    84   1
    90    43    85   1
    91    43    86   1
    92    44    87   1
    93    44    88   1
    94    45    89   1
    95    45    90   1
    96    47    91   1
    97    47    92   1
    98    48    93   1
    99    48    94   1
   100    48    95   1
   101    49    96   1
   102    49    97   1
   103    49    98   1
   104    50    99   1
   105    50   100   1
   106    50   101   1
   107    51   102   1
   108    51   103   1
   109    51   104   1
   110    52   105   1
   111    52   106   1
@<TRIPOS>SUBSTRUCTURE
     1  SU3      1

