@<TRIPOS>MOLECULE
3su3_ligand_087
   106   111
SMALL
GAST_HUCK
****
This file was generated by PARSER (from files_GN.cpp)

@<TRIPOS>ATOM
      1 C          -8.2158   -4.5642   11.0041 C.2         1 SU3       0.2013
      2 N          -9.9460   -6.3201   10.7721 N.am        1 SU3      -0.2469
      3 O          -8.7884   -4.2077   12.0286 O.2         1 SU3      -0.3947
      4 CA         -8.6112   -5.8513   10.4091 C.3         1 SU3       0.1363
      5 CB         -8.6294   -5.8020    8.8581 C.3         1 SU3       0.0206
      6 CG         -9.8405   -6.6610    8.4488 C.3         1 SU3       0.1158
      7 CAF       -10.3172   -6.6467   12.0248 C.2         1 SU3       0.2070
      8 OAG        -9.4245   -6.7934   12.8522 O.2         1 SU3      -0.3942
      9 CAH       -11.6992   -6.8402   12.5129 C.3         1 SU3       0.1378
     10 NAI       -11.8251   -8.1898   13.0041 N.am        1 SU3      -0.2407
     11 CAJ       -12.8307   -9.0463   12.7072 C.2         1 SU3       0.3218
     12 OAK       -12.9478  -10.1648   13.4695 O.3         1 SU3      -0.2633
     13 CAL       -12.2059   -5.7836   13.5881 C.3         1 SU3       0.0025
     14 OAM       -13.7696   -8.7468   11.7757 O.2         1 SU3      -0.3774
     15 CAO        -8.8579   -8.7401    7.3963 C.2         1 SU3       0.4317
     16 OAP        -8.3380   -8.0535    6.3486 O.2         1 SU3      -0.3166
     17 NAQ        -8.7391  -10.0919    7.4686 N.am        1 SU3      -0.2080
     18 CAR        -7.4847    0.1020   11.6921 C.3         1 SU3      -0.0516
     19 CAS        -8.3430    0.8092   10.6228 C.3         1 SU3      -0.0651
     20 CAT       -12.2254   -4.3505   12.9604 C.3         1 SU3      -0.0558
     21 NAV        -7.2615   -3.7990   10.4773 N.am        1 SU3      -0.2737
     22 CAX        -6.8409   -2.4474   10.8117 C.3         1 SU3       0.1374
     23 CAY        -6.0120   -1.8215    9.7917 C.2         1 SU3       0.2444
     24 CAZ        -7.6716   -1.4374   11.6653 C.3         1 SU3      -0.0066
     25 CBA        -6.5234   -2.2331   12.3067 C.3         1 SU3      -0.0152
     26 CBB        -8.1208  -10.8835    6.5640 C.2         1 SU3       0.0383
     27 CBC        -8.2351  -12.2069    6.9701 C.ar        1 SU3      -0.0374
     28 CBD        -8.9415  -12.2156    8.1726 C.ar        1 SU3      -0.0293
     29 CBE        -9.2392  -10.8809    8.4466 C.2         1 SU3       0.0366
     30 CBF        -7.7855  -13.3987    6.3756 C.ar        1 SU3      -0.0689
     31 CBG        -8.0662  -14.6190    7.0219 C.ar        1 SU3      -0.0688
     32 CBH        -8.7802  -14.6344    8.2387 C.ar        1 SU3      -0.0606
     33 CBI        -9.2299  -13.4304    8.8433 C.ar        1 SU3      -0.0432
     34 CBJ        -9.9766  -13.4779   10.1292 C.3         1 SU3      -0.0194
     35 NBK        -4.7279   -1.5779    9.9998 N.am        1 SU3      -0.1552
     36 OBL        -6.5577   -1.5407    8.7342 O.2         1 SU3      -0.3404
     37 SBM        -3.6572   -0.8049    8.9465 S.o2        1 SU3       0.0645
     38 CBN        -2.5640    0.3864    9.7538 C.3         1 SU3       0.1004
     39 OBO        -2.7783   -1.9035    8.2016 O.2         1 SU3      -0.1503
     40 OBP        -4.4237    0.0066    7.8116 O.2         1 SU3      -0.1503
     41 CBQ        -3.1992    1.7074   10.2228 C.3         1 SU3      -0.0268
     42 CBR        -2.7274    0.6765   11.2566 C.3         1 SU3      -0.0268
     43 CBS       -11.4469  -13.9402    9.9354 C.3         1 SU3      -0.0433
     44 CBT       -12.2772  -14.0059   11.2486 C.3         1 SU3      -0.0507
     45 CBU       -12.7356  -12.6203   11.7911 C.3         1 SU3      -0.0453
     46 CBV       -13.5010  -12.5971   13.1681 C.3         1 SU3      -0.0072
     47 CBW       -14.0071  -11.1390   13.4394 C.3         1 SU3       0.0824
     48 CBX       -14.7463  -13.5430   13.1441 C.3         1 SU3      -0.0574
     49 CBY       -12.5629  -13.0272   14.3411 C.3         1 SU3      -0.0574
     50 CBZ       -13.6827   -6.1056   14.0101 C.3         1 SU3      -0.0558
     51 CCA       -11.3382   -5.7558   14.8920 C.3         1 SU3      -0.0558
     52 CD1       -10.8005   -6.4403    9.6271 C.3         1 SU3       0.0677
     53 OD2        -9.5470   -8.0661    8.3570 O.3         1 SU3      -0.2338
     54 H1         -7.8813   -6.6083   10.7135 H           1 SU3       0.0803
     55 H2         -7.7030   -6.1865    8.4270 H           1 SU3       0.0342
     56 H3         -8.7909   -4.7836    8.4911 H           1 SU3       0.0342
     57 H4        -10.2886   -6.3132    7.5125 H           1 SU3       0.0673
     58 H5        -12.3808   -6.7194   11.6700 H           1 SU3       0.0805
     59 H6        -11.1987   -8.4660   13.6917 H           1 SU3       0.1899
     60 H7         -7.7933    0.4604   12.6765 H           1 SU3       0.0265
     61 H8         -6.4382    0.3841   11.5493 H           1 SU3       0.0265
     62 H9         -8.3290    1.8869   10.7993 H           1 SU3       0.0230
     63 H10        -9.3778    0.4608   10.6717 H           1 SU3       0.0230
     64 H11        -7.9482    0.6180    9.6221 H           1 SU3       0.0230
     65 H12       -12.6274   -3.6186   13.6646 H           1 SU3       0.0237
     66 H13       -12.8433   -4.3252   12.0590 H           1 SU3       0.0237
     67 H14       -11.2226   -4.0330   12.6902 H           1 SU3       0.0237
     68 H15        -6.8130   -4.1838    9.7049 H           1 SU3       0.1839
     69 H16        -8.6457   -1.7606   12.0220 H           1 SU3       0.0312
     70 H17        -5.6418   -1.6472   12.5832 H           1 SU3       0.0279
     71 H18        -6.8446   -3.0123   12.9986 H           1 SU3       0.0279
     72 H19        -7.6536  -10.5751    5.7072 H           1 SU3       0.0373
     73 H20        -9.7693  -10.5548    9.2590 H           1 SU3       0.0361
     74 H21        -7.2709  -13.3817    5.4929 H           1 SU3       0.0557
     75 H22        -7.7484  -15.4971    6.6061 H           1 SU3       0.0599
     76 H23        -8.9664  -15.5346    8.6868 H           1 SU3       0.0557
     77 H24        -9.9649  -12.4982   10.6065 H           1 SU3       0.0426
     78 H25        -9.4656  -14.1621   10.8123 H           1 SU3       0.0426
     79 H26        -4.3568   -1.8635   10.8483 H           1 SU3       0.2148
     80 H27        -1.5539    0.5078    9.3568 H           1 SU3       0.0559
     81 H28        -4.2817    1.8074   10.1304 H           1 SU3       0.0285
     82 H29        -2.5743    2.5989   10.1464 H           1 SU3       0.0285
     83 H30        -1.8197    0.9504   11.7972 H           1 SU3       0.0285
     84 H31        -3.5327    0.1739   11.7937 H           1 SU3       0.0285
     85 H32       -11.4373  -14.9430    9.4973 H           1 SU3       0.0287
     86 H33       -11.9492  -13.2777    9.2242 H           1 SU3       0.0287
     87 H34       -11.6935  -14.5338   12.0038 H           1 SU3       0.0267
     88 H35       -13.1660  -14.6046   11.0389 H           1 SU3       0.0267
     89 H36       -13.3763  -12.1682   11.0274 H           1 SU3       0.0271
     90 H37       -11.8552  -11.9806   11.8830 H           1 SU3       0.0271
     91 H38       -14.7602  -10.8694   12.6934 H           1 SU3       0.0617
     92 H39       -14.5012  -11.0933   14.4142 H           1 SU3       0.0617
     93 H40       -14.4476  -14.5892   13.0603 H           1 SU3       0.0236
     94 H41       -15.3967  -13.3043   12.3000 H           1 SU3       0.0236
     95 H42       -15.3295  -13.4411   14.0623 H           1 SU3       0.0236
     96 H43       -11.6637  -12.4121   14.3550 H           1 SU3       0.0236
     97 H44       -12.2589  -14.0705   14.2491 H           1 SU3       0.0236
     98 H45       -13.0651  -12.9133   15.3046 H           1 SU3       0.0236
     99 H46       -13.7380   -7.0510   14.5532 H           1 SU3       0.0237
    100 H47       -14.3301   -6.1755   13.1339 H           1 SU3       0.0237
    101 H48       -14.0868   -5.3303   14.6648 H           1 SU3       0.0237
    102 H49       -10.3355   -5.3716   14.6989 H           1 SU3       0.0237
    103 H50       -11.2468   -6.7583   15.3154 H           1 SU3       0.0237
    104 H51       -11.7860   -5.1074   15.6481 H           1 SU3       0.0237
    105 H52       -11.3712   -5.5174    9.4948 H           1 SU3       0.0553
    106 H53       -11.4887   -7.2881    9.6830 H           1 SU3       0.0553
@<TRIPOS>BOND
     1     1     3   2
     2     1     4   1
     3    21     1  am
     4     4     2   1
     5     2     7  am
     6     2    52   1
     7     4     5   1
     8     5     6   1
     9     6    52   1
    10     6    53   1
    11     7     8   2
    12     7     9   1
    13     9    10   1
    14     9    13   1
    15    10    11  am
    16    11    12   1
    17    11    14   2
    18    12    47   1
    19    13    20   1
    20    13    50   1
    21    13    51   1
    22    15    16   2
    23    15    17  am
    24    53    15   1
    25    17    26   1
    26    17    29   1
    27    18    19   1
    28    24    18   1
    29    22    21   1
    30    22    23   1
    31    22    24   1
    32    22    25   1
    33    23    35  am
    34    23    36   2
    35    24    25   1
    36    26    27   2
    37    27    28  ar
    38    27    30  ar
    39    28    29   2
    40    28    33  ar
    41    30    31  ar
    42    31    32  ar
    43    32    33  ar
    44    33    34   1
    45    34    43   1
    46    35    37  am
    47    37    38   1
    48    37    39   2
    49    37    40   2
    50    38    41   1
    51    38    42   1
    52    41    42   1
    53    43    44   1
    54    44    45   1
    55    45    46   1
    56    46    47   1
    57    46    48   1
    58    46    49   1
    59     4    54   1
    60     5    55   1
    61     5    56   1
    62     6    57   1
    63     9    58   1
    64    10    59   1
    65    18    60   1
    66    18    61   1
    67    19    62   1
    68    19    63   1
    69    19    64   1
    70    20    65   1
    71    20    66   1
    72    20    67   1
    73    21    68   1
    74    24    69   1
    75    25    70   1
    76    25    71   1
    77    26    72   1
    78    29    73   1
    79    30    74   1
    80    31    75   1
    81    32    76   1
    82    34    77   1
    83    34    78   1
    84    35    79   1
    85    38    80   1
    86    41    81   1
    87    41    82   1
    88    42    83   1
    89    42    84   1
    90    43    85   1
    91    43    86   1
    92    44    87   1
    93    44    88   1
    94    45    89   1
    95    45    90   1
    96    47    91   1
    97    47    92   1
    98    48    93   1
    99    48    94   1
   100    48    95   1
   101    49    96   1
   102    49    97   1
   103    49    98   1
   104    50    99   1
   105    50   100   1
   106    50   101   1
   107    51   102   1
   108    51   103   1
   109    51   104   1
   110    52   105   1
   111    52   106   1
@<TRIPOS>SUBSTRUCTURE
     1  SU3      1

