@<TRIPOS>MOLECULE
3su3_ligand_065
   106   111
SMALL
GAST_HUCK
****
This file was generated by PARSER (from files_GN.cpp)

@<TRIPOS>ATOM
      1 C         -16.2853  -17.3652   19.2772 C.2         1 SU3       0.2013
      2 N         -16.1242  -15.3812   17.8198 N.am        1 SU3      -0.2469
      3 O         -16.8313  -18.4516   19.1100 O.2         1 SU3      -0.3947
      4 CA        -15.6567  -16.7205   18.1241 C.3         1 SU3       0.1363
      5 CB        -14.1261  -16.5915   18.3244 C.3         1 SU3       0.0206
      6 CG        -13.7736  -15.3217   17.5365 C.3         1 SU3       0.1158
      7 CAF       -17.3984  -15.0868   17.4940 C.2         1 SU3       0.2070
      8 OAG       -18.1579  -16.0261   17.2813 O.2         1 SU3      -0.3942
      9 CAH       -17.9622  -13.7368   17.2945 C.3         1 SU3       0.1378
     10 NAI       -18.3388  -13.5951   15.9107 N.am        1 SU3      -0.2407
     11 CAJ       -17.9290  -12.6044   15.0820 C.2         1 SU3       0.3218
     12 OAK       -18.5809  -12.4494   13.8978 O.3         1 SU3      -0.2633
     13 CAL       -19.1433  -13.3258   18.2735 C.3         1 SU3       0.0025
     14 OAM       -16.9907  -11.7032   15.4613 O.2         1 SU3      -0.3774
     15 CAO       -12.5557  -16.2424   15.5301 C.2         1 SU3       0.4317
     16 OAP       -11.5540  -16.7463   16.2906 O.2         1 SU3      -0.3166
     17 NAQ       -12.5208  -16.3820   14.1795 N.am        1 SU3      -0.2080
     18 CAR       -17.9311  -16.5773   23.9938 C.3         1 SU3      -0.0516
     19 CAS       -17.9752  -17.8772   24.8365 C.3         1 SU3      -0.0651
     20 CAT       -18.5492  -12.9597   19.6751 C.3         1 SU3      -0.0558
     21 NAV       -16.2039  -16.8364   20.4948 N.am        1 SU3      -0.2737
     22 CAX       -16.6703  -17.4494   21.7036 C.3         1 SU3       0.1374
     23 CAY       -15.7031  -18.2357   22.4468 C.2         1 SU3       0.2444
     24 CAZ       -17.8033  -16.6815   22.4459 C.3         1 SU3      -0.0066
     25 CBA       -18.1315  -17.9755   21.6838 C.3         1 SU3      -0.0152
     26 CBB       -11.5465  -16.9942   13.4666 C.2         1 SU3       0.0383
     27 CBC       -11.8582  -16.9151   12.1148 C.ar        1 SU3      -0.0374
     28 CBD       -13.0726  -16.2391   12.0079 C.ar        1 SU3      -0.0293
     29 CBE       -13.4509  -15.9195   13.3120 C.2         1 SU3       0.0366
     30 CBF       -11.1713  -17.3699   10.9767 C.ar        1 SU3      -0.0689
     31 CBG       -11.7328  -17.1208    9.7092 C.ar        1 SU3      -0.0688
     32 CBH       -12.9629  -16.4377    9.5952 C.ar        1 SU3      -0.0606
     33 CBI       -13.6634  -15.9911   10.7446 C.ar        1 SU3      -0.0432
     34 CBJ       -14.9561  -15.2718   10.6019 C.3         1 SU3      -0.0194
     35 NBK       -15.3879  -19.4569   22.0477 N.am        1 SU3      -0.1552
     36 OBL       -15.1687  -17.7154   23.4190 O.2         1 SU3      -0.3404
     37 SBM       -14.2120  -20.4442   22.7529 S.o2        1 SU3       0.0645
     38 CBN       -13.5939  -21.7701   21.6919 C.3         1 SU3       0.1004
     39 OBO       -12.9152  -19.5620   23.0276 O.2         1 SU3      -0.1503
     40 OBP       -14.7037  -21.0429   24.1475 O.2         1 SU3      -0.1503
     41 CBQ       -14.3061  -23.1236   21.8001 C.3         1 SU3      -0.0268
     42 CBR       -14.4241  -22.2932   20.5134 C.3         1 SU3      -0.0268
     43 CBS       -14.7444  -13.7725   10.2564 C.3         1 SU3      -0.0433
     44 CBT       -16.0618  -12.9565   10.1488 C.3         1 SU3      -0.0507
     45 CBU       -16.6840  -12.5585   11.5229 C.3         1 SU3      -0.0453
     46 CBV       -18.0814  -11.8354   11.4998 C.3         1 SU3      -0.0072
     47 CBW       -18.4396  -11.3707   12.9532 C.3         1 SU3       0.0824
     48 CBX       -18.0428  -10.5618   10.5899 C.3         1 SU3      -0.0574
     49 CBY       -19.2061  -12.7935   10.9880 C.3         1 SU3      -0.0574
     50 CBZ       -19.8837  -12.0479   17.7412 C.3         1 SU3      -0.0558
     51 CCA       -20.2280  -14.4383   18.4745 C.3         1 SU3      -0.0558
     52 CD1       -15.0292  -14.4546   17.7409 C.3         1 SU3       0.0677
     53 OD2       -13.5827  -15.5804   16.1326 O.3         1 SU3      -0.2338
     54 H1        -15.8174  -17.3303   17.2273 H           1 SU3       0.0803
     55 H2        -13.5970  -17.4748   17.9562 H           1 SU3       0.0342
     56 H3        -13.8583  -16.4411   19.3774 H           1 SU3       0.0342
     57 H4        -12.8892  -14.8256   17.9423 H           1 SU3       0.0673
     58 H5        -17.1787  -13.0115   17.5083 H           1 SU3       0.0805
     59 H6        -19.0338  -14.1835   15.5826 H           1 SU3       0.1899
     60 H7        -17.1164  -15.9553   24.3636 H           1 SU3       0.0265
     61 H8        -18.8639  -16.0409   24.1904 H           1 SU3       0.0265
     62 H9        -18.0676  -17.6161   25.8933 H           1 SU3       0.0230
     63 H10       -17.0568  -18.4509   24.7061 H           1 SU3       0.0230
     64 H11       -18.8343  -18.4992   24.5624 H           1 SU3       0.0230
     65 H12       -19.3369  -12.7175   20.3930 H           1 SU3       0.0237
     66 H13       -17.8878  -12.0934   19.5964 H           1 SU3       0.0237
     67 H14       -17.9673  -13.7882   20.0773 H           1 SU3       0.0237
     68 H15       -15.7608  -15.9764   20.5814 H           1 SU3       0.1839
     69 H16       -18.1385  -15.7955   21.9055 H           1 SU3       0.0312
     70 H17       -18.3200  -18.8777   22.2639 H           1 SU3       0.0279
     71 H18       -18.6717  -17.8518   20.7377 H           1 SU3       0.0279
     72 H19       -10.7049  -17.4360   13.8458 H           1 SU3       0.0373
     73 H20       -14.2965  -15.4038   13.5684 H           1 SU3       0.0361
     74 H21       -10.2794  -17.8620   11.0655 H           1 SU3       0.0557
     75 H22       -11.2446  -17.4333    8.8685 H           1 SU3       0.0599
     76 H23       -13.3457  -16.2674    8.6631 H           1 SU3       0.0557
     77 H24       -15.5368  -15.3597   11.5208 H           1 SU3       0.0426
     78 H25       -15.5490  -15.7464    9.8152 H           1 SU3       0.0426
     79 H26       -15.8699  -19.8162   21.2824 H           1 SU3       0.2148
     80 H27       -12.5099  -21.8609   21.5906 H           1 SU3       0.0559
     81 H28       -15.2205  -23.1770   22.3966 H           1 SU3       0.0285
     82 H29       -13.6618  -24.0013   21.7310 H           1 SU3       0.0285
     83 H30       -13.8525  -22.6730   19.6628 H           1 SU3       0.0285
     84 H31       -15.4000  -21.8307   20.3393 H           1 SU3       0.0285
     85 H32       -14.2306  -13.7134    9.2922 H           1 SU3       0.0287
     86 H33       -14.0934  -13.3091   11.0034 H           1 SU3       0.0287
     87 H34       -16.7805  -13.5259    9.5568 H           1 SU3       0.0267
     88 H35       -15.8335  -12.0412    9.5968 H           1 SU3       0.0267
     89 H36       -15.9615  -11.9088   12.0252 H           1 SU3       0.0271
     90 H37       -16.7761  -13.4574   12.1352 H           1 SU3       0.0271
     91 H38       -17.6951  -10.6495   13.2979 H           1 SU3       0.0617
     92 H39       -19.3982  -10.8473   12.9452 H           1 SU3       0.0617
     93 H40       -17.9023  -10.8287    9.5408 H           1 SU3       0.0236
     94 H41       -17.2256   -9.8999   10.8872 H           1 SU3       0.0236
     95 H42       -18.9780  -10.0013   10.6627 H           1 SU3       0.0236
     96 H43       -19.2253  -13.7162   11.5717 H           1 SU3       0.0236
     97 H44       -19.0556  -13.0577    9.9405 H           1 SU3       0.0236
     98 H45       -20.1862  -12.3185   11.0708 H           1 SU3       0.0236
     99 H46       -20.4241  -12.2673   16.8165 H           1 SU3       0.0237
    100 H47       -19.1741  -11.2424   17.5355 H           1 SU3       0.0237
    101 H48       -20.6149  -11.6763   18.4656 H           1 SU3       0.0237
    102 H49       -19.8286  -15.2809   19.0416 H           1 SU3       0.0237
    103 H50       -20.5828  -14.8054   17.5097 H           1 SU3       0.0237
    104 H51       -21.0892  -14.0586   19.0314 H           1 SU3       0.0237
    105 H52       -14.9655  -13.8850   18.6725 H           1 SU3       0.0553
    106 H53       -15.1213  -13.7678   16.8965 H           1 SU3       0.0553
@<TRIPOS>BOND
     1     1     3   2
     2     1     4   1
     3    21     1  am
     4     4     2   1
     5     2     7  am
     6     2    52   1
     7     4     5   1
     8     5     6   1
     9     6    52   1
    10     6    53   1
    11     7     8   2
    12     7     9   1
    13     9    10   1
    14     9    13   1
    15    10    11  am
    16    11    12   1
    17    11    14   2
    18    12    47   1
    19    13    20   1
    20    13    50   1
    21    13    51   1
    22    15    16   2
    23    15    17  am
    24    53    15   1
    25    17    26   1
    26    17    29   1
    27    18    19   1
    28    24    18   1
    29    22    21   1
    30    22    23   1
    31    22    24   1
    32    22    25   1
    33    23    35  am
    34    23    36   2
    35    24    25   1
    36    26    27   2
    37    27    28  ar
    38    27    30  ar
    39    28    29   2
    40    28    33  ar
    41    30    31  ar
    42    31    32  ar
    43    32    33  ar
    44    33    34   1
    45    34    43   1
    46    35    37  am
    47    37    38   1
    48    37    39   2
    49    37    40   2
    50    38    41   1
    51    38    42   1
    52    41    42   1
    53    43    44   1
    54    44    45   1
    55    45    46   1
    56    46    47   1
    57    46    48   1
    58    46    49   1
    59     4    54   1
    60     5    55   1
    61     5    56   1
    62     6    57   1
    63     9    58   1
    64    10    59   1
    65    18    60   1
    66    18    61   1
    67    19    62   1
    68    19    63   1
    69    19    64   1
    70    20    65   1
    71    20    66   1
    72    20    67   1
    73    21    68   1
    74    24    69   1
    75    25    70   1
    76    25    71   1
    77    26    72   1
    78    29    73   1
    79    30    74   1
    80    31    75   1
    81    32    76   1
    82    34    77   1
    83    34    78   1
    84    35    79   1
    85    38    80   1
    86    41    81   1
    87    41    82   1
    88    42    83   1
    89    42    84   1
    90    43    85   1
    91    43    86   1
    92    44    87   1
    93    44    88   1
    94    45    89   1
    95    45    90   1
    96    47    91   1
    97    47    92   1
    98    48    93   1
    99    48    94   1
   100    48    95   1
   101    49    96   1
   102    49    97   1
   103    49    98   1
   104    50    99   1
   105    50   100   1
   106    50   101   1
   107    51   102   1
   108    51   103   1
   109    51   104   1
   110    52   105   1
   111    52   106   1
@<TRIPOS>SUBSTRUCTURE
     1  SU3      1

