@<TRIPOS>MOLECULE
3su3_ligand_011
   106   111
SMALL
GAST_HUCK
****
This file was generated by PARSER (from files_GN.cpp)

@<TRIPOS>ATOM
      1 C         -12.5159   -5.6909   11.9654 C.2         1 SU3       0.2013
      2 N         -10.6242   -5.6625   10.3961 N.am        1 SU3      -0.2469
      3 O         -12.2432   -6.7752   12.4712 O.2         1 SU3      -0.3947
      4 CA        -12.0297   -5.3945   10.6196 C.3         1 SU3       0.1363
      5 CB        -12.7769   -6.2550    9.5667 C.3         1 SU3       0.0206
      6 CG        -11.7382   -6.4401    8.4539 C.3         1 SU3       0.1158
      7 CAF        -9.6278   -5.1363   11.1384 C.2         1 SU3       0.2070
      8 OAG        -9.9243   -4.2850   11.9684 O.2         1 SU3      -0.3942
      9 CAH        -8.1993   -5.4954   11.0636 C.3         1 SU3       0.1378
     10 NAI        -7.4499   -4.2997   10.7542 N.am        1 SU3      -0.2407
     11 CAJ        -6.6504   -4.1011    9.6763 C.2         1 SU3       0.3218
     12 OAK        -5.9323   -2.9451    9.6210 O.3         1 SU3      -0.2633
     13 CAL        -7.6340   -6.2533   12.3411 C.3         1 SU3       0.0025
     14 OAM        -6.4945   -5.0424    8.7204 O.2         1 SU3      -0.3774
     15 CAO       -12.5914   -4.9171    6.6297 C.2         1 SU3       0.4317
     16 OAP       -13.6845   -5.6804    6.3873 O.2         1 SU3      -0.3166
     17 NAQ       -12.3840   -3.7575    5.9512 N.am        1 SU3      -0.2080
     18 CAR       -12.9404   -5.1401   16.4905 C.3         1 SU3      -0.0516
     19 CAS       -11.5314   -5.2027   17.1069 C.3         1 SU3      -0.0651
     20 CAT        -6.1287   -6.6229   12.1077 C.3         1 SU3      -0.0558
     21 NAV       -13.2831   -4.8197   12.6131 N.am        1 SU3      -0.2737
     22 CAX       -13.8645   -5.0228   13.9085 C.3         1 SU3       0.1374
     23 CAY       -14.9500   -6.0081   14.0397 C.2         1 SU3       0.2444
     24 CAZ       -12.9463   -4.5249   15.0569 C.3         1 SU3      -0.0066
     25 CBA       -14.1620   -3.6891   14.6232 C.3         1 SU3      -0.0152
     26 CBB       -13.1784   -3.2372    4.9915 C.2         1 SU3       0.0383
     27 CBC       -12.6359   -2.0283    4.5743 C.ar        1 SU3      -0.0374
     28 CBD       -11.4766   -1.8086    5.3131 C.ar        1 SU3      -0.0293
     29 CBE       -11.3433   -2.9159    6.1476 C.2         1 SU3       0.0366
     30 CBF       -13.0731   -1.1018    3.6106 C.ar        1 SU3      -0.0689
     31 CBG       -12.3082    0.0636    3.4065 C.ar        1 SU3      -0.0688
     32 CBH       -11.1369    0.2923    4.1606 C.ar        1 SU3      -0.0606
     33 CBI       -10.6978   -0.6366    5.1383 C.ar        1 SU3      -0.0432
     34 CBJ        -9.4891   -0.3471    5.9580 C.3         1 SU3      -0.0194
     35 NBK       -15.5333   -6.4846   12.9428 N.am        1 SU3      -0.1552
     36 OBL       -15.3250   -6.3866   15.1380 O.2         1 SU3      -0.3404
     37 SBM       -16.6878   -7.7134   12.8808 S.o2        1 SU3       0.0645
     38 CBN       -17.6770   -7.9744   14.3771 C.3         1 SU3       0.1004
     39 OBO       -17.7299   -7.2433   11.7753 O.2         1 SU3      -0.1503
     40 OBP       -16.0140   -9.0598   12.3664 O.2         1 SU3      -0.1503
     41 CBQ       -18.7020   -9.1218   14.3371 C.3         1 SU3      -0.0268
     42 CBR       -17.4510   -9.2489   15.2099 C.3         1 SU3      -0.0268
     43 CBS        -8.1653   -0.5482    5.1729 C.3         1 SU3      -0.0433
     44 CBT        -6.8821   -0.2853    6.0133 C.3         1 SU3      -0.0507
     45 CBU        -6.4854   -1.4454    6.9783 C.3         1 SU3      -0.0453
     46 CBV        -5.2268   -1.2293    7.8997 C.3         1 SU3      -0.0072
     47 CBW        -4.9206   -2.5634    8.6692 C.3         1 SU3       0.0824
     48 CBX        -3.9635   -0.8653    7.0501 C.3         1 SU3      -0.0574
     49 CBY        -5.4781   -0.0934    8.9433 C.3         1 SU3      -0.0574
     50 CBZ        -7.7185   -5.4119   13.6582 C.3         1 SU3      -0.0558
     51 CCA        -8.4152   -7.5940   12.5607 C.3         1 SU3      -0.0558
     52 CD1       -10.4201   -6.4976    9.2461 C.3         1 SU3       0.0677
     53 OD2       -11.6979   -5.3043    7.5788 O.3         1 SU3      -0.2338
     54 H1        -12.2033   -4.3418   10.3780 H           1 SU3       0.0803
     55 H2        -13.6862   -5.7628    9.2095 H           1 SU3       0.0342
     56 H3        -13.0508   -7.2445    9.9557 H           1 SU3       0.0342
     57 H4        -11.8980   -7.3574    7.8800 H           1 SU3       0.0673
     58 H5         -8.0592   -6.2034   10.2461 H           1 SU3       0.0805
     59 H6         -7.4865   -3.5829   11.4055 H           1 SU3       0.1899
     60 H7        -13.5858   -4.5499   17.1493 H           1 SU3       0.0265
     61 H8        -13.2975   -6.1736   16.4834 H           1 SU3       0.0265
     62 H9        -11.5916   -5.6431   18.1060 H           1 SU3       0.0230
     63 H10       -11.1027   -4.2018   17.1834 H           1 SU3       0.0230
     64 H11       -10.8867   -5.8327   16.4880 H           1 SU3       0.0230
     65 H12        -5.7357   -7.2096   12.9416 H           1 SU3       0.0237
     66 H13        -5.5113   -5.7272   12.0129 H           1 SU3       0.0237
     67 H14        -6.0100   -7.2128   11.1983 H           1 SU3       0.0237
     68 H15       -13.4644   -3.9725   12.1686 H           1 SU3       0.1839
     69 H16       -12.0140   -4.0553   14.7293 H           1 SU3       0.0312
     70 H17       -14.9989   -3.6573   15.3251 H           1 SU3       0.0279
     71 H18       -13.9134   -2.7641   14.0904 H           1 SU3       0.0279
     72 H19       -14.0407   -3.6495    4.6292 H           1 SU3       0.0373
     73 H20       -10.5783   -3.0635    6.8065 H           1 SU3       0.0361
     74 H21       -13.9265   -1.2689    3.0739 H           1 SU3       0.0557
     75 H22       -12.6102    0.7525    2.7134 H           1 SU3       0.0599
     76 H23       -10.6107    1.1557    4.0020 H           1 SU3       0.0557
     77 H24        -9.4759   -0.9811    6.8425 H           1 SU3       0.0426
     78 H25        -9.5466    0.6844    6.3178 H           1 SU3       0.0426
     79 H26       -15.2364   -6.1296   12.0896 H           1 SU3       0.2148
     80 H27       -18.0128   -7.1012   14.9370 H           1 SU3       0.0559
     81 H28       -18.7111   -9.7473   13.4426 H           1 SU3       0.0285
     82 H29       -19.6334   -8.9474   14.8794 H           1 SU3       0.0285
     83 H30       -17.6330   -9.1652   16.2838 H           1 SU3       0.0285
     84 H31       -16.7066   -9.9627   14.8495 H           1 SU3       0.0285
     85 H32        -8.1615    0.1440    4.3264 H           1 SU3       0.0287
     86 H33        -8.1294   -1.5627    4.7677 H           1 SU3       0.0287
     87 H34        -7.0123    0.6433    6.5733 H           1 SU3       0.0267
     88 H35        -6.0632   -0.1299    5.3065 H           1 SU3       0.0267
     89 H36        -6.3162   -2.3316    6.3599 H           1 SU3       0.0271
     90 H37        -7.3403   -1.6659    7.6191 H           1 SU3       0.0271
     91 H38        -4.7390   -3.3691    7.9510 H           1 SU3       0.0617
     92 H39        -3.9965   -2.4448    9.2434 H           1 SU3       0.0617
     93 H40        -4.0749    0.1088    6.5719 H           1 SU3       0.0236
     94 H41        -3.7930   -1.6121    6.2715 H           1 SU3       0.0236
     95 H42        -3.0701   -0.8185    7.6772 H           1 SU3       0.0236
     96 H43        -6.3869   -0.2867    9.5177 H           1 SU3       0.0236
     97 H44        -5.5859    0.8758    8.4548 H           1 SU3       0.0236
     98 H45        -4.6426   -0.0199    9.6435 H           1 SU3       0.0236
     99 H46        -8.7526   -5.2579   13.9687 H           1 SU3       0.0237
    100 H47        -7.2479   -4.4379   13.5219 H           1 SU3       0.0237
    101 H48        -7.2107   -5.9194   14.4810 H           1 SU3       0.0237
    102 H49        -8.3458   -8.2333   11.6769 H           1 SU3       0.0237
    103 H50        -9.4704   -7.4047   12.7593 H           1 SU3       0.0237
    104 H51        -8.0114   -8.1488   13.4104 H           1 SU3       0.0237
    105 H52       -10.1997   -7.5219    9.5652 H           1 SU3       0.0553
    106 H53        -9.6092   -6.1381    8.6037 H           1 SU3       0.0553
@<TRIPOS>BOND
     1     1     3   2
     2     1     4   1
     3    21     1  am
     4     4     2   1
     5     2     7  am
     6     2    52   1
     7     4     5   1
     8     5     6   1
     9     6    52   1
    10     6    53   1
    11     7     8   2
    12     7     9   1
    13     9    10   1
    14     9    13   1
    15    10    11  am
    16    11    12   1
    17    11    14   2
    18    12    47   1
    19    13    20   1
    20    13    50   1
    21    13    51   1
    22    15    16   2
    23    15    17  am
    24    53    15   1
    25    17    26   1
    26    17    29   1
    27    18    19   1
    28    24    18   1
    29    22    21   1
    30    22    23   1
    31    22    24   1
    32    22    25   1
    33    23    35  am
    34    23    36   2
    35    24    25   1
    36    26    27   2
    37    27    28  ar
    38    27    30  ar
    39    28    29   2
    40    28    33  ar
    41    30    31  ar
    42    31    32  ar
    43    32    33  ar
    44    33    34   1
    45    34    43   1
    46    35    37  am
    47    37    38   1
    48    37    39   2
    49    37    40   2
    50    38    41   1
    51    38    42   1
    52    41    42   1
    53    43    44   1
    54    44    45   1
    55    45    46   1
    56    46    47   1
    57    46    48   1
    58    46    49   1
    59     4    54   1
    60     5    55   1
    61     5    56   1
    62     6    57   1
    63     9    58   1
    64    10    59   1
    65    18    60   1
    66    18    61   1
    67    19    62   1
    68    19    63   1
    69    19    64   1
    70    20    65   1
    71    20    66   1
    72    20    67   1
    73    21    68   1
    74    24    69   1
    75    25    70   1
    76    25    71   1
    77    26    72   1
    78    29    73   1
    79    30    74   1
    80    31    75   1
    81    32    76   1
    82    34    77   1
    83    34    78   1
    84    35    79   1
    85    38    80   1
    86    41    81   1
    87    41    82   1
    88    42    83   1
    89    42    84   1
    90    43    85   1
    91    43    86   1
    92    44    87   1
    93    44    88   1
    94    45    89   1
    95    45    90   1
    96    47    91   1
    97    47    92   1
    98    48    93   1
    99    48    94   1
   100    48    95   1
   101    49    96   1
   102    49    97   1
   103    49    98   1
   104    50    99   1
   105    50   100   1
   106    50   101   1
   107    51   102   1
   108    51   103   1
   109    51   104   1
   110    52   105   1
   111    52   106   1
@<TRIPOS>SUBSTRUCTURE
     1  SU3      1

