@<TRIPOS>MOLECULE
3su3_ligand_070
   106   111
SMALL
GAST_HUCK
****
This file was generated by PARSER (from files_GN.cpp)

@<TRIPOS>ATOM
      1 C         -16.3868   -9.8787   14.2445 C.2         1 SU3       0.2013
      2 N         -16.7992  -12.2906   14.6617 N.am        1 SU3      -0.2469
      3 O         -17.1651   -9.6092   15.1482 O.2         1 SU3      -0.3947
      4 CA        -15.9765  -11.2709   14.0244 C.3         1 SU3       0.1363
      5 CB        -16.0062  -11.6440   12.5151 C.3         1 SU3       0.0206
      6 CG        -16.3857  -13.1292   12.4867 C.3         1 SU3       0.1158
      7 CAF       -17.0106  -12.3895   15.9902 C.2         1 SU3       0.2070
      8 OAG       -16.3021  -11.7249   16.7352 O.2         1 SU3      -0.3942
      9 CAH       -18.0557  -13.1955   16.6475 C.3         1 SU3       0.1378
     10 NAI       -17.3717  -14.1731   17.4453 N.am        1 SU3      -0.2407
     11 CAJ       -17.5337  -15.5096   17.4360 C.2         1 SU3       0.3218
     12 OAK       -16.8732  -16.1808   18.4121 O.3         1 SU3      -0.2633
     13 CAL       -19.1252  -12.3967   17.5216 C.3         1 SU3       0.0025
     14 OAM       -18.3696  -16.1398   16.5770 O.2         1 SU3      -0.3774
     15 CAO       -14.2694  -14.2999   11.7574 C.2         1 SU3       0.4317
     16 OAP       -14.3176  -13.7682   10.5121 O.2         1 SU3      -0.3166
     17 NAQ       -13.2598  -15.1358   12.1152 N.am        1 SU3      -0.2080
     18 CAR       -17.0213   -5.5282   11.7732 C.3         1 SU3      -0.0516
     19 CAS       -16.1780   -5.3368   10.4952 C.3         1 SU3      -0.0651
     20 CAT       -19.3873  -10.9548   16.9668 C.3         1 SU3      -0.0558
     21 NAV       -15.9401   -8.8944   13.4721 N.am        1 SU3      -0.2737
     22 CAX       -16.3417   -7.5229   13.5659 C.3         1 SU3       0.1374
     23 CAY       -15.4343   -6.6387   14.2676 C.2         1 SU3       0.2444
     24 CAZ       -17.0105   -6.9984   12.2650 C.3         1 SU3      -0.0066
     25 CBA       -17.8534   -7.2093   13.5344 C.3         1 SU3      -0.0152
     26 CBB       -12.2217  -15.5250   11.3388 C.2         1 SU3       0.0383
     27 CBC       -11.3986  -16.3707   12.0756 C.ar        1 SU3      -0.0374
     28 CBD       -11.9617  -16.4926   13.3445 C.ar        1 SU3      -0.0293
     29 CBE       -13.1214  -15.7207   13.3274 C.2         1 SU3       0.0366
     30 CBF       -10.2107  -17.0444   11.7395 C.ar        1 SU3      -0.0689
     31 CBG        -9.5951  -17.8518   12.7166 C.ar        1 SU3      -0.0688
     32 CBH       -10.1618  -17.9713   14.0047 C.ar        1 SU3      -0.0606
     33 CBI       -11.3570  -17.2894   14.3466 C.ar        1 SU3      -0.0432
     34 CBJ       -11.9504  -17.4438   15.7018 C.3         1 SU3      -0.0194
     35 NBK       -14.2448   -6.3958   13.7442 N.am        1 SU3      -0.1552
     36 OBL       -15.7482   -6.2369   15.3788 O.2         1 SU3      -0.3404
     37 SBM       -13.0209   -5.4747   14.4575 S.o2        1 SU3       0.0645
     38 CBN       -12.9658   -5.4042   16.2726 C.3         1 SU3       0.1004
     39 OBO       -11.6519   -6.1012   13.9468 O.2         1 SU3      -0.1503
     40 OBP       -13.0593   -3.9991   13.8661 O.2         1 SU3      -0.1503
     41 CBQ       -13.2390   -6.7046   17.0450 C.3         1 SU3      -0.0268
     42 CBR       -11.8264   -6.1084   17.0286 C.3         1 SU3      -0.0268
     43 CBS       -12.8114  -18.7323   15.8024 C.3         1 SU3      -0.0433
     44 CBT       -13.4781  -18.9413   17.1915 C.3         1 SU3      -0.0507
     45 CBU       -14.8062  -18.1487   17.3947 C.3         1 SU3      -0.0453
     46 CBV       -15.4947  -18.2333   18.8100 C.3         1 SU3      -0.0072
     47 CBW       -16.9170  -17.5760   18.7338 C.3         1 SU3       0.0824
     48 CBX       -15.7009  -19.7167   19.2624 C.3         1 SU3      -0.0574
     49 CBY       -14.6383  -17.4848   19.8854 C.3         1 SU3      -0.0574
     50 CBZ       -20.4909  -13.1681   17.5012 C.3         1 SU3      -0.0558
     51 CCA       -18.6981  -12.2605   19.0266 C.3         1 SU3      -0.0558
     52 CD1       -17.3020  -13.2440   13.7147 C.3         1 SU3       0.0677
     53 OD2       -15.2491  -13.9944   12.6529 O.3         1 SU3      -0.2338
     54 H1        -14.9483  -11.3786   14.3849 H           1 SU3       0.0803
     55 H2        -15.0425  -11.4615   12.0330 H           1 SU3       0.0342
     56 H3        -16.7766  -11.0801   11.9772 H           1 SU3       0.0342
     57 H4        -16.9285  -13.3982   11.5756 H           1 SU3       0.0673
     58 H5        -18.6189  -13.7078   15.8680 H           1 SU3       0.0805
     59 H6        -16.7743  -13.8230   18.1265 H           1 SU3       0.1899
     60 H7        -18.0528   -5.2420   11.5478 H           1 SU3       0.0265
     61 H8        -16.6479   -4.8631   12.5531 H           1 SU3       0.0265
     62 H9        -16.2037   -4.2874   10.1966 H           1 SU3       0.0230
     63 H10       -16.5820   -5.9385    9.6781 H           1 SU3       0.0230
     64 H11       -15.1406   -5.6264   10.6699 H           1 SU3       0.0230
     65 H12       -20.2661  -10.4992   17.4267 H           1 SU3       0.0237
     66 H13       -19.5412  -10.9776   15.8858 H           1 SU3       0.0237
     67 H14       -18.5357  -10.3062   17.1819 H           1 SU3       0.0237
     68 H15       -15.3150   -9.1207   12.7658 H           1 SU3       0.1839
     69 H16       -17.2450   -7.7534   11.5104 H           1 SU3       0.0312
     70 H17       -18.1615   -6.3292   14.1041 H           1 SU3       0.0279
     71 H18       -18.5208   -8.0746   13.5223 H           1 SU3       0.0279
     72 H19       -12.0554  -15.2503   10.3670 H           1 SU3       0.0373
     73 H20       -13.7656  -15.6167   14.1140 H           1 SU3       0.0361
     74 H21        -9.8026  -16.9547   10.8067 H           1 SU3       0.0557
     75 H22        -8.7327  -18.3539   12.4931 H           1 SU3       0.0599
     76 H23        -9.6928  -18.5606   14.6969 H           1 SU3       0.0557
     77 H24       -12.5618  -16.5747   15.9480 H           1 SU3       0.0426
     78 H25       -11.1482  -17.4795   16.4449 H           1 SU3       0.0426
     79 H26       -14.0473   -6.7984   12.8823 H           1 SU3       0.2148
     80 H27       -13.3503   -4.5072   16.7619 H           1 SU3       0.0559
     81 H28       -13.3563   -7.6218   16.4639 H           1 SU3       0.0285
     82 H29       -13.7818   -6.5981   17.9875 H           1 SU3       0.0285
     83 H30       -11.5053   -5.6435   17.9656 H           1 SU3       0.0285
     84 H31       -11.0981   -6.6653   16.4352 H           1 SU3       0.0285
     85 H32       -12.1641  -19.5915   15.6027 H           1 SU3       0.0287
     86 H33       -13.5834  -18.7209   15.0274 H           1 SU3       0.0287
     87 H34       -12.7582  -18.6799   17.9690 H           1 SU3       0.0267
     88 H35       -13.6961  -20.0075   17.2900 H           1 SU3       0.0267
     89 H36       -15.5127  -18.5101   16.6416 H           1 SU3       0.0271
     90 H37       -14.6144  -17.0971   17.1672 H           1 SU3       0.0271
     91 H38       -17.5444  -18.1185   18.0197 H           1 SU3       0.0617
     92 H39       -17.4072  -17.6426   19.7086 H           1 SU3       0.0617
     93 H40       -14.7482  -20.2165   19.4319 H           1 SU3       0.0236
     94 H41       -16.2505  -20.2780   18.5038 H           1 SU3       0.0236
     95 H42       -16.2642  -19.7660   20.1973 H           1 SU3       0.0236
     96 H43       -14.4438  -16.4536   19.5820 H           1 SU3       0.0236
     97 H44       -13.6768  -17.9772   20.0377 H           1 SU3       0.0236
     98 H45       -15.1534  -17.4613   20.8484 H           1 SU3       0.0236
     99 H46       -20.3609  -14.1892   17.8661 H           1 SU3       0.0237
    100 H47       -20.8896  -13.2179   16.4855 H           1 SU3       0.0237
    101 H48       -21.2382  -12.6772   18.1296 H           1 SU3       0.0237
    102 H49       -17.7198  -11.7825   19.1160 H           1 SU3       0.0237
    103 H50       -18.6368  -13.2432   19.5039 H           1 SU3       0.0237
    104 H51       -19.4196  -11.6670   19.5924 H           1 SU3       0.0237
    105 H52       -18.3341  -12.9898   13.4556 H           1 SU3       0.0553
    106 H53       -17.2675  -14.2722   14.0877 H           1 SU3       0.0553
@<TRIPOS>BOND
     1     1     3   2
     2     1     4   1
     3    21     1  am
     4     4     2   1
     5     2     7  am
     6     2    52   1
     7     4     5   1
     8     5     6   1
     9     6    52   1
    10     6    53   1
    11     7     8   2
    12     7     9   1
    13     9    10   1
    14     9    13   1
    15    10    11  am
    16    11    12   1
    17    11    14   2
    18    12    47   1
    19    13    20   1
    20    13    50   1
    21    13    51   1
    22    15    16   2
    23    15    17  am
    24    53    15   1
    25    17    26   1
    26    17    29   1
    27    18    19   1
    28    24    18   1
    29    22    21   1
    30    22    23   1
    31    22    24   1
    32    22    25   1
    33    23    35  am
    34    23    36   2
    35    24    25   1
    36    26    27   2
    37    27    28  ar
    38    27    30  ar
    39    28    29   2
    40    28    33  ar
    41    30    31  ar
    42    31    32  ar
    43    32    33  ar
    44    33    34   1
    45    34    43   1
    46    35    37  am
    47    37    38   1
    48    37    39   2
    49    37    40   2
    50    38    41   1
    51    38    42   1
    52    41    42   1
    53    43    44   1
    54    44    45   1
    55    45    46   1
    56    46    47   1
    57    46    48   1
    58    46    49   1
    59     4    54   1
    60     5    55   1
    61     5    56   1
    62     6    57   1
    63     9    58   1
    64    10    59   1
    65    18    60   1
    66    18    61   1
    67    19    62   1
    68    19    63   1
    69    19    64   1
    70    20    65   1
    71    20    66   1
    72    20    67   1
    73    21    68   1
    74    24    69   1
    75    25    70   1
    76    25    71   1
    77    26    72   1
    78    29    73   1
    79    30    74   1
    80    31    75   1
    81    32    76   1
    82    34    77   1
    83    34    78   1
    84    35    79   1
    85    38    80   1
    86    41    81   1
    87    41    82   1
    88    42    83   1
    89    42    84   1
    90    43    85   1
    91    43    86   1
    92    44    87   1
    93    44    88   1
    94    45    89   1
    95    45    90   1
    96    47    91   1
    97    47    92   1
    98    48    93   1
    99    48    94   1
   100    48    95   1
   101    49    96   1
   102    49    97   1
   103    49    98   1
   104    50    99   1
   105    50   100   1
   106    50   101   1
   107    51   102   1
   108    51   103   1
   109    51   104   1
   110    52   105   1
   111    52   106   1
@<TRIPOS>SUBSTRUCTURE
     1  SU3      1

