@<TRIPOS>MOLECULE
3su3_ligand_028
   106   111
SMALL
GAST_HUCK
****
This file was generated by PARSER (from files_GN.cpp)

@<TRIPOS>ATOM
      1 C          -7.1503   -4.0546    9.9968 C.2         1 SU3       0.2013
      2 N          -6.3795   -2.9148    7.9647 N.am        1 SU3      -0.2469
      3 O          -8.1057   -4.4140    9.3247 O.2         1 SU3      -0.3947
      4 CA         -6.1900   -3.1317    9.3887 C.3         1 SU3       0.1363
      5 CB         -6.2714   -1.7293   10.0418 C.3         1 SU3       0.0206
      6 CG         -6.0542   -0.7536    8.8742 C.3         1 SU3       0.1158
      7 CAF        -6.3291   -3.9041    7.0486 C.2         1 SU3       0.2070
      8 OAG        -5.8582   -4.9794    7.4026 O.2         1 SU3      -0.3942
      9 CAH        -6.7510   -3.8160    5.6415 C.3         1 SU3       0.1378
     10 NAI        -5.5667   -3.9075    4.8254 N.am        1 SU3      -0.2407
     11 CAJ        -5.2209   -3.0739    3.8155 C.2         1 SU3       0.3218
     12 OAK        -4.1717   -3.4356    3.0293 O.3         1 SU3      -0.2633
     13 CAL        -7.8608   -4.8607    5.1883 C.3         1 SU3       0.0025
     14 OAM        -5.9584   -1.9773    3.5149 O.2         1 SU3      -0.3774
     15 CAO        -3.8319    0.3103    9.4117 C.2         1 SU3       0.4317
     16 OAP        -4.3016    0.9252   10.5248 O.2         1 SU3      -0.3166
     17 NAQ        -2.5460    0.4780    9.0128 N.am        1 SU3      -0.2080
     18 CAR        -7.4316   -7.9770   12.9026 C.3         1 SU3      -0.0516
     19 CAS        -6.8418   -8.5647   14.1997 C.3         1 SU3      -0.0651
     20 CAT        -7.4312   -6.3574    5.3704 C.3         1 SU3      -0.0558
     21 NAV        -7.0226   -4.4491   11.2612 N.am        1 SU3      -0.2737
     22 CAX        -7.8162   -5.4346   11.9580 C.3         1 SU3       0.1374
     23 CAY        -9.1207   -5.8458   11.4605 C.2         1 SU3       0.2444
     24 CAZ        -6.9554   -6.5173   12.6640 C.3         1 SU3      -0.0066
     25 CBA        -7.6456   -5.4259   13.4938 C.3         1 SU3      -0.0152
     26 CBB        -1.6107    1.2406    9.6216 C.2         1 SU3       0.0383
     27 CBC        -0.4329    1.1768    8.8859 C.ar        1 SU3      -0.0374
     28 CBD        -0.6639    0.3318    7.8014 C.ar        1 SU3      -0.0293
     29 CBE        -1.9893   -0.0806    7.9129 C.2         1 SU3       0.0366
     30 CBF         0.8118    1.7980    9.0756 C.ar        1 SU3      -0.0689
     31 CBG         1.8332    1.5511    8.1383 C.ar        1 SU3      -0.0688
     32 CBH         1.6041    0.6937    7.0387 C.ar        1 SU3      -0.0606
     33 CBI         0.3490    0.0604    6.8504 C.ar        1 SU3      -0.0432
     34 CBJ         0.1256   -0.8404    5.6866 C.3         1 SU3      -0.0194
     35 NBK        -9.1858   -6.7567   10.5006 N.am        1 SU3      -0.1552
     36 OBL       -10.1085   -5.2359   11.8471 O.2         1 SU3      -0.3404
     37 SBM       -10.5833   -7.1671    9.6504 S.o2        1 SU3       0.0645
     38 CBN       -11.4344   -8.6922   10.1196 C.3         1 SU3       0.1004
     39 OBO       -11.5827   -5.9301    9.6005 O.2         1 SU3      -0.1503
     40 OBP       -10.1328   -7.3164    8.1332 O.2         1 SU3      -0.1503
     41 CBQ       -10.5412   -9.8431   10.6067 C.3         1 SU3      -0.0268
     42 CBR       -11.4759   -9.1273   11.5911 C.3         1 SU3      -0.0268
     43 CBS        -0.1176   -0.0441    4.3758 C.3         1 SU3      -0.0433
     44 CBT        -0.3860   -0.9341    3.1296 C.3         1 SU3      -0.0507
     45 CBU        -1.8349   -1.5055    3.0417 C.3         1 SU3      -0.0453
     46 CBV        -2.1549   -2.4873    1.8527 C.3         1 SU3      -0.0072
     47 CBW        -3.6947   -2.7878    1.8354 C.3         1 SU3       0.0824
     48 CBX        -1.7757   -1.8507    0.4737 C.3         1 SU3      -0.0574
     49 CBY        -1.3811   -3.8366    2.0138 C.3         1 SU3      -0.0574
     50 CBZ        -9.1868   -4.6206    5.9856 C.3         1 SU3      -0.0558
     51 CCA        -8.1952   -4.6510    3.6713 C.3         1 SU3      -0.0558
     52 CD1        -6.5884   -1.5323    7.6576 C.3         1 SU3       0.0677
     53 OD2        -4.6667   -0.4573    8.6606 O.3         1 SU3      -0.2338
     54 H1         -5.1777   -3.5235    9.5273 H           1 SU3       0.0803
     55 H2         -5.5213   -1.6089   10.8294 H           1 SU3       0.0342
     56 H3         -7.2570   -1.5374   10.4775 H           1 SU3       0.0342
     57 H4         -6.6116    0.1780    9.0123 H           1 SU3       0.0673
     58 H5         -7.2052   -2.8363    5.4890 H           1 SU3       0.0805
     59 H6         -4.9906   -4.6719    4.9797 H           1 SU3       0.1899
     60 H7         -8.5198   -8.0353   12.9611 H           1 SU3       0.0265
     61 H8         -7.1048   -8.5889   12.0580 H           1 SU3       0.0265
     62 H9         -7.1565   -9.6026   14.3123 H           1 SU3       0.0230
     63 H10        -7.1872   -8.0006   15.0680 H           1 SU3       0.0230
     64 H11        -5.7527   -8.5322   14.1660 H           1 SU3       0.0230
     65 H12        -8.1311   -7.0299    4.8693 H           1 SU3       0.0237
     66 H13        -7.4182   -6.6473    6.4223 H           1 SU3       0.0237
     67 H14        -6.4362   -6.5287    4.9530 H           1 SU3       0.0237
     68 H15        -6.2935   -4.0545   11.7681 H           1 SU3       0.1839
     69 H16        -5.8740   -6.3704   12.5954 H           1 SU3       0.0312
     70 H17        -8.4948   -5.7548   14.0977 H           1 SU3       0.0279
     71 H18        -6.9728   -4.6775   13.9167 H           1 SU3       0.0279
     72 H19        -1.7400    1.7953   10.4712 H           1 SU3       0.0373
     73 H20        -2.4681   -0.6978    7.2524 H           1 SU3       0.0361
     74 H21         0.9721    2.4186    9.8723 H           1 SU3       0.0557
     75 H22         2.7443    1.9983    8.2549 H           1 SU3       0.0599
     76 H23         2.3639    0.5331    6.3734 H           1 SU3       0.0557
     77 H24        -0.7249   -1.4965    5.8731 H           1 SU3       0.0426
     78 H25         0.9968   -1.4899    5.5656 H           1 SU3       0.0426
     79 H26        -8.3582   -7.1746   10.2072 H           1 SU3       0.2148
     80 H27       -12.2878   -9.0098    9.5172 H           1 SU3       0.0559
     81 H28        -9.4803   -9.6350   10.7601 H           1 SU3       0.0285
     82 H29       -10.8516  -10.8475   10.3123 H           1 SU3       0.0285
     83 H30       -12.3465   -9.7092   11.9006 H           1 SU3       0.0285
     84 H31       -10.9700   -8.4953   12.3212 H           1 SU3       0.0285
     85 H32         0.7720    0.5606    4.1732 H           1 SU3       0.0287
     86 H33        -0.9566    0.6444    4.5139 H           1 SU3       0.0287
     87 H34         0.3434   -1.7460    3.1139 H           1 SU3       0.0267
     88 H35        -0.2073   -0.3144    2.2474 H           1 SU3       0.0267
     89 H36        -2.5141   -0.6498    2.9796 H           1 SU3       0.0271
     90 H37        -2.0603   -2.0190    3.9788 H           1 SU3       0.0271
     91 H38        -4.2462   -1.8618    1.6503 H           1 SU3       0.0617
     92 H39        -3.9256   -3.4631    1.0078 H           1 SU3       0.0617
     93 H40        -0.6958   -1.7224    0.3800 H           1 SU3       0.0236
     94 H41        -2.2475   -0.8724    0.3565 H           1 SU3       0.0236
     95 H42        -2.1010   -2.4858   -0.3537 H           1 SU3       0.0236
     96 H43        -1.5886   -4.2912    2.9847 H           1 SU3       0.0236
     97 H44        -0.3035   -3.6872    1.9328 H           1 SU3       0.0236
     98 H45        -1.6751   -4.5459    1.2366 H           1 SU3       0.0236
     99 H46        -9.5398   -3.5947    5.8572 H           1 SU3       0.0237
    100 H47        -9.0390   -4.7947    7.0483 H           1 SU3       0.0237
    101 H48        -9.9758   -5.2978    5.6500 H           1 SU3       0.0237
    102 H49        -7.3414   -4.9115    3.0433 H           1 SU3       0.0237
    103 H50        -8.4631   -3.6117    3.4707 H           1 SU3       0.0237
    104 H51        -9.0327   -5.2798    3.3606 H           1 SU3       0.0237
    105 H52        -7.6549   -1.3429    7.5123 H           1 SU3       0.0553
    106 H53        -6.0433   -1.2224    6.7604 H           1 SU3       0.0553
@<TRIPOS>BOND
     1     1     3   2
     2     1     4   1
     3    21     1  am
     4     4     2   1
     5     2     7  am
     6     2    52   1
     7     4     5   1
     8     5     6   1
     9     6    52   1
    10     6    53   1
    11     7     8   2
    12     7     9   1
    13     9    10   1
    14     9    13   1
    15    10    11  am
    16    11    12   1
    17    11    14   2
    18    12    47   1
    19    13    20   1
    20    13    50   1
    21    13    51   1
    22    15    16   2
    23    15    17  am
    24    53    15   1
    25    17    26   1
    26    17    29   1
    27    18    19   1
    28    24    18   1
    29    22    21   1
    30    22    23   1
    31    22    24   1
    32    22    25   1
    33    23    35  am
    34    23    36   2
    35    24    25   1
    36    26    27   2
    37    27    28  ar
    38    27    30  ar
    39    28    29   2
    40    28    33  ar
    41    30    31  ar
    42    31    32  ar
    43    32    33  ar
    44    33    34   1
    45    34    43   1
    46    35    37  am
    47    37    38   1
    48    37    39   2
    49    37    40   2
    50    38    41   1
    51    38    42   1
    52    41    42   1
    53    43    44   1
    54    44    45   1
    55    45    46   1
    56    46    47   1
    57    46    48   1
    58    46    49   1
    59     4    54   1
    60     5    55   1
    61     5    56   1
    62     6    57   1
    63     9    58   1
    64    10    59   1
    65    18    60   1
    66    18    61   1
    67    19    62   1
    68    19    63   1
    69    19    64   1
    70    20    65   1
    71    20    66   1
    72    20    67   1
    73    21    68   1
    74    24    69   1
    75    25    70   1
    76    25    71   1
    77    26    72   1
    78    29    73   1
    79    30    74   1
    80    31    75   1
    81    32    76   1
    82    34    77   1
    83    34    78   1
    84    35    79   1
    85    38    80   1
    86    41    81   1
    87    41    82   1
    88    42    83   1
    89    42    84   1
    90    43    85   1
    91    43    86   1
    92    44    87   1
    93    44    88   1
    94    45    89   1
    95    45    90   1
    96    47    91   1
    97    47    92   1
    98    48    93   1
    99    48    94   1
   100    48    95   1
   101    49    96   1
   102    49    97   1
   103    49    98   1
   104    50    99   1
   105    50   100   1
   106    50   101   1
   107    51   102   1
   108    51   103   1
   109    51   104   1
   110    52   105   1
   111    52   106   1
@<TRIPOS>SUBSTRUCTURE
     1  SU3      1

