@<TRIPOS>MOLECULE
3su3_ligand_017
   106   111
SMALL
GAST_HUCK
****
This file was generated by PARSER (from files_GN.cpp)

@<TRIPOS>ATOM
      1 C         -11.1762   -5.7053   10.7162 C.2         1 SU3       0.2013
      2 N         -13.6001   -5.5028   10.9295 N.am        1 SU3      -0.2469
      3 O         -10.9673   -4.5678   11.1207 O.2         1 SU3      -0.3947
      4 CA        -12.4867   -6.0291   10.1656 C.3         1 SU3       0.1363
      5 CB        -12.6302   -5.4195    8.7461 C.3         1 SU3       0.0206
      6 CG        -14.1137   -5.0389    8.6661 C.3         1 SU3       0.1158
      7 CAF       -13.8261   -5.7963   12.2249 C.2         1 SU3       0.2070
      8 OAG       -13.2043   -6.7260   12.7293 O.2         1 SU3      -0.3942
      9 CAH       -14.7613   -5.0892   13.1122 C.3         1 SU3       0.1378
     10 NAI       -15.7903   -6.0402   13.4242 N.am        1 SU3      -0.2407
     11 CAJ       -17.1247   -5.8652   13.2983 C.2         1 SU3       0.3218
     12 OAK       -17.9170   -6.8561   13.7871 O.3         1 SU3      -0.2633
     13 CAL       -14.1477   -4.4165   14.4241 C.3         1 SU3       0.0025
     14 OAM       -17.6547   -4.7251   12.8022 O.2         1 SU3      -0.3774
     15 CAO       -15.0302   -6.7470    7.0602 C.2         1 SU3       0.4317
     16 OAP       -14.3204   -6.2522    6.0162 O.2         1 SU3      -0.3166
     17 NAQ       -15.8300   -7.8290    6.9066 N.am        1 SU3      -0.2080
     18 CAR        -7.5940   -5.5513   13.3746 C.3         1 SU3      -0.0516
     19 CAS        -7.8631   -5.5426   14.8956 C.3         1 SU3      -0.0651
     20 CAT       -12.5768   -4.3555   14.4178 C.3         1 SU3      -0.0558
     21 NAV       -10.1897   -6.5930   10.6725 N.am        1 SU3      -0.2737
     22 CAX        -8.8546   -6.3211   11.0996 C.3         1 SU3       0.1374
     23 CAY        -8.1172   -5.3530   10.3075 C.2         1 SU3       0.2444
     24 CAZ        -8.6188   -6.4480   12.6280 C.3         1 SU3      -0.0066
     25 CBA        -8.0953   -7.5354   11.6727 C.3         1 SU3      -0.0152
     26 CBB       -16.0343   -8.5146    5.7577 C.2         1 SU3       0.0383
     27 CBC       -16.9148   -9.5579    6.0078 C.ar        1 SU3      -0.0374
     28 CBD       -17.2492   -9.5076    7.3608 C.ar        1 SU3      -0.0293
     29 CBE       -16.5598   -8.4163    7.8844 C.2         1 SU3       0.0366
     30 CBF       -17.4562  -10.5399    5.1594 C.ar        1 SU3      -0.0689
     31 CBG       -18.3527  -11.4782    5.7047 C.ar        1 SU3      -0.0688
     32 CBH       -18.6923  -11.4308    7.0756 C.ar        1 SU3      -0.0606
     33 CBI       -18.1412  -10.4454    7.9347 C.ar        1 SU3      -0.0432
     34 CBJ       -18.5256  -10.4038    9.3714 C.3         1 SU3      -0.0194
     35 NBK        -7.5588   -5.7514    9.1728 N.am        1 SU3      -0.1552
     36 OBL        -8.2117   -4.1683   10.5989 O.2         1 SU3      -0.3404
     37 SBM        -6.8084   -4.7374    8.0546 S.o2        1 SU3       0.0645
     38 CBN        -6.4192   -5.6662    6.5491 C.3         1 SU3       0.1004
     39 OBO        -7.8019   -3.5495    7.7041 O.2         1 SU3      -0.1503
     40 OBP        -5.4778   -4.1698    8.7112 O.2         1 SU3      -0.1503
     41 CBQ        -7.5143   -5.7999    5.4826 C.3         1 SU3      -0.0268
     42 CBR        -6.2799   -4.9268    5.2123 C.3         1 SU3      -0.0268
     43 CBS       -19.9043   -9.7197    9.5752 C.3         1 SU3      -0.0433
     44 CBT       -20.3328   -9.5865   11.0636 C.3         1 SU3      -0.0507
     45 CBU       -19.6607   -8.3978   11.8174 C.3         1 SU3      -0.0453
     46 CBV       -19.9557   -8.2438   13.3564 C.3         1 SU3      -0.0072
     47 CBW       -19.3523   -6.8894   13.8623 C.3         1 SU3       0.0824
     48 CBX       -21.4949   -8.2161   13.6335 C.3         1 SU3      -0.0574
     49 CBY       -19.3248   -9.4225   14.1674 C.3         1 SU3      -0.0574
     50 CBZ       -14.6525   -2.9310   14.5388 C.3         1 SU3      -0.0558
     51 CCA       -14.5713   -5.1485   15.7460 C.3         1 SU3      -0.0558
     52 CD1       -14.4376   -4.6583   10.1220 C.3         1 SU3       0.0677
     53 OD2       -14.9307   -6.1535    8.2804 O.3         1 SU3      -0.2338
     54 H1        -12.5986   -7.1187   10.1005 H           1 SU3       0.0803
     55 H2        -12.3429   -6.1357    7.9732 H           1 SU3       0.0342
     56 H3        -12.0310   -4.5090    8.6198 H           1 SU3       0.0342
     57 H4        -14.2809   -4.1937    7.9923 H           1 SU3       0.0673
     58 H5        -15.1989   -4.2773   12.5334 H           1 SU3       0.0805
     59 H6        -15.5018   -6.8763   13.8208 H           1 SU3       0.1899
     60 H7         -6.5680   -5.8869   13.1903 H           1 SU3       0.0265
     61 H8         -7.6875   -4.5265   13.0084 H           1 SU3       0.0265
     62 H9         -7.1390   -4.8996   15.3976 H           1 SU3       0.0230
     63 H10        -7.7815   -6.5574   15.2950 H           1 SU3       0.0230
     64 H11        -8.8672   -5.1554   15.0990 H           1 SU3       0.0230
     65 H12       -12.2019   -3.7948   15.2740 H           1 SU3       0.0237
     66 H13       -12.2128   -3.8804   13.5031 H           1 SU3       0.0237
     67 H14       -12.1407   -5.3578   14.4725 H           1 SU3       0.0237
     68 H15       -10.3727   -7.4671   10.2888 H           1 SU3       0.1839
     69 H16        -9.5150   -6.7436   13.1838 H           1 SU3       0.0312
     70 H17        -7.0178   -7.5630   11.5036 H           1 SU3       0.0279
     71 H18        -8.6341   -8.4828   11.7292 H           1 SU3       0.0279
     72 H19       -15.6184   -8.3030    4.8476 H           1 SU3       0.0373
     73 H20       -16.6022   -8.1085    8.8592 H           1 SU3       0.0361
     74 H21       -17.2099  -10.5677    4.1686 H           1 SU3       0.0557
     75 H22       -18.7624  -12.1983    5.1047 H           1 SU3       0.0599
     76 H23       -19.3475  -12.1255    7.4440 H           1 SU3       0.0557
     77 H24       -17.7657   -9.8776    9.9488 H           1 SU3       0.0426
     78 H25       -18.5619  -11.4237    9.7635 H           1 SU3       0.0426
     79 H26        -7.5786   -6.6944    8.9622 H           1 SU3       0.2148
     80 H27        -5.7814   -6.5423    6.6521 H           1 SU3       0.0559
     81 H28        -8.4407   -5.2415    5.6215 H           1 SU3       0.0285
     82 H29        -7.5418   -6.7457    4.9393 H           1 SU3       0.0285
     83 H30        -5.5696   -5.3478    4.4990 H           1 SU3       0.0285
     84 H31        -6.4699   -3.8527    5.2077 H           1 SU3       0.0285
     85 H32       -20.6611  -10.3147    9.0567 H           1 SU3       0.0287
     86 H33       -19.8954   -8.7278    9.1141 H           1 SU3       0.0287
     87 H34       -20.1286  -10.5281   11.5757 H           1 SU3       0.0267
     88 H35       -21.4149   -9.4340   11.0756 H           1 SU3       0.0267
     89 H36       -19.9781   -7.4811   11.3102 H           1 SU3       0.0271
     90 H37       -18.5785   -8.4719   11.6850 H           1 SU3       0.0271
     91 H38       -19.7884   -6.0548   13.3074 H           1 SU3       0.0617
     92 H39       -19.6033   -6.7418   14.9141 H           1 SU3       0.0617
     93 H40       -21.9578   -9.1742   13.3859 H           1 SU3       0.0236
     94 H41       -21.9809   -7.4365   13.0421 H           1 SU3       0.0236
     95 H42       -21.6980   -8.0199   14.6889 H           1 SU3       0.0236
     96 H43       -18.2534   -9.5029   13.9706 H           1 SU3       0.0236
     97 H44       -19.7877  -10.3756   13.9074 H           1 SU3       0.0236
     98 H45       -19.4616   -9.2718   15.2409 H           1 SU3       0.0236
     99 H46       -15.7448   -2.8940   14.5499 H           1 SU3       0.0237
    100 H47       -14.3008   -2.3387   13.6891 H           1 SU3       0.0237
    101 H48       -14.2902   -2.4454   15.4477 H           1 SU3       0.0237
    102 H49       -14.2313   -6.1857   15.7461 H           1 SU3       0.0237
    103 H50       -15.6573   -5.1449   15.8562 H           1 SU3       0.0237
    104 H51       -14.1607   -4.6550   16.6272 H           1 SU3       0.0237
    105 H52       -14.1920   -3.6078   10.3082 H           1 SU3       0.0553
    106 H53       -15.5049   -4.8158   10.3095 H           1 SU3       0.0553
@<TRIPOS>BOND
     1     1     3   2
     2     1     4   1
     3    21     1  am
     4     4     2   1
     5     2     7  am
     6     2    52   1
     7     4     5   1
     8     5     6   1
     9     6    52   1
    10     6    53   1
    11     7     8   2
    12     7     9   1
    13     9    10   1
    14     9    13   1
    15    10    11  am
    16    11    12   1
    17    11    14   2
    18    12    47   1
    19    13    20   1
    20    13    50   1
    21    13    51   1
    22    15    16   2
    23    15    17  am
    24    53    15   1
    25    17    26   1
    26    17    29   1
    27    18    19   1
    28    24    18   1
    29    22    21   1
    30    22    23   1
    31    22    24   1
    32    22    25   1
    33    23    35  am
    34    23    36   2
    35    24    25   1
    36    26    27   2
    37    27    28  ar
    38    27    30  ar
    39    28    29   2
    40    28    33  ar
    41    30    31  ar
    42    31    32  ar
    43    32    33  ar
    44    33    34   1
    45    34    43   1
    46    35    37  am
    47    37    38   1
    48    37    39   2
    49    37    40   2
    50    38    41   1
    51    38    42   1
    52    41    42   1
    53    43    44   1
    54    44    45   1
    55    45    46   1
    56    46    47   1
    57    46    48   1
    58    46    49   1
    59     4    54   1
    60     5    55   1
    61     5    56   1
    62     6    57   1
    63     9    58   1
    64    10    59   1
    65    18    60   1
    66    18    61   1
    67    19    62   1
    68    19    63   1
    69    19    64   1
    70    20    65   1
    71    20    66   1
    72    20    67   1
    73    21    68   1
    74    24    69   1
    75    25    70   1
    76    25    71   1
    77    26    72   1
    78    29    73   1
    79    30    74   1
    80    31    75   1
    81    32    76   1
    82    34    77   1
    83    34    78   1
    84    35    79   1
    85    38    80   1
    86    41    81   1
    87    41    82   1
    88    42    83   1
    89    42    84   1
    90    43    85   1
    91    43    86   1
    92    44    87   1
    93    44    88   1
    94    45    89   1
    95    45    90   1
    96    47    91   1
    97    47    92   1
    98    48    93   1
    99    48    94   1
   100    48    95   1
   101    49    96   1
   102    49    97   1
   103    49    98   1
   104    50    99   1
   105    50   100   1
   106    50   101   1
   107    51   102   1
   108    51   103   1
   109    51   104   1
   110    52   105   1
   111    52   106   1
@<TRIPOS>SUBSTRUCTURE
     1  SU3      1

