@<TRIPOS>MOLECULE
3su3_ligand_052
   106   111
SMALL
GAST_HUCK
****
This file was generated by PARSER (from files_GN.cpp)

@<TRIPOS>ATOM
      1 C          -7.3305   -4.8303   11.3905 C.2         1 SU3       0.2013
      2 N          -7.0945   -3.0154    9.7681 N.am        1 SU3      -0.2469
      3 O          -6.1531   -5.0617   11.6515 O.2         1 SU3      -0.3947
      4 CA         -7.6564   -4.3219   10.0587 C.3         1 SU3       0.1363
      5 CB         -7.1657   -5.2502    8.9227 C.3         1 SU3       0.0206
      6 CG         -6.8543   -4.2741    7.7788 C.3         1 SU3       0.1158
      7 CAF        -7.3582   -1.9155   10.5031 C.2         1 SU3       0.2070
      8 OAG        -8.2416   -2.0022   11.3517 O.2         1 SU3      -0.3942
      9 CAH        -6.7375   -0.5850   10.3681 C.3         1 SU3       0.1378
     10 NAI        -7.7838    0.3753   10.1216 N.am        1 SU3      -0.2407
     11 CAJ        -7.8420    1.2363    9.0798 C.2         1 SU3       0.3218
     12 OAK        -8.8198    2.1797    9.0990 O.3         1 SU3      -0.2633
     13 CAL        -5.8142   -0.1615   11.5910 C.3         1 SU3       0.0025
     14 OAM        -6.9116    1.2292    8.0954 O.2         1 SU3      -0.3774
     15 CAO        -8.6926   -4.7148    6.1163 C.2         1 SU3       0.4317
     16 OAP        -8.2009   -5.9379    5.7992 O.2         1 SU3      -0.3166
     17 NAQ        -9.8235   -4.2509    5.5248 N.am        1 SU3      -0.2080
     18 CAR        -7.3013   -7.7651   14.9118 C.3         1 SU3      -0.0516
     19 CAS        -6.6436   -9.0308   14.3188 C.3         1 SU3      -0.0651
     20 CAT        -6.3228   -0.6776   12.9792 C.3         1 SU3      -0.0558
     21 NAV        -8.3078   -5.0255   12.2779 N.am        1 SU3      -0.2737
     22 CAX        -8.2751   -5.5419   13.6242 C.3         1 SU3       0.1374
     23 CAY        -9.5924   -5.7384   14.2007 C.2         1 SU3       0.2444
     24 CAZ        -7.1320   -6.5477   13.9558 C.3         1 SU3      -0.0066
     25 CBA        -7.1605   -5.1582   14.6187 C.3         1 SU3      -0.0152
     26 CBB       -10.5709   -4.8948    4.5973 C.2         1 SU3       0.0383
     27 CBC       -11.6487   -4.0870    4.2497 C.ar        1 SU3      -0.0374
     28 CBD       -11.5488   -2.9199    5.0019 C.ar        1 SU3      -0.0293
     29 CBE       -10.3981   -3.0525    5.7733 C.2         1 SU3       0.0366
     30 CBF       -12.7010   -4.2788    3.3367 C.ar        1 SU3      -0.0689
     31 CBG       -13.6569   -3.2540    3.1921 C.ar        1 SU3      -0.0688
     32 CBH       -13.5585   -2.0707    3.9576 C.ar        1 SU3      -0.0606
     33 CBI       -12.5045   -1.8806    4.8868 C.ar        1 SU3      -0.0432
     34 CBJ       -12.4248   -0.6309    5.6900 C.3         1 SU3      -0.0194
     35 NBK       -10.5326   -6.3375   13.4882 N.am        1 SU3      -0.1552
     36 OBL        -9.8308   -5.2605   15.3139 O.2         1 SU3      -0.3404
     37 SBM       -12.1493   -6.5036   13.9249 S.o2        1 SU3       0.0645
     38 CBN       -12.5801   -6.0431   15.6255 C.3         1 SU3       0.1004
     39 OBO       -13.0355   -5.6274   12.9318 O.2         1 SU3      -0.1503
     40 OBP       -12.5278   -8.0284   13.6802 O.2         1 SU3      -0.1503
     41 CBQ       -13.4592   -6.9779   16.4749 C.3         1 SU3      -0.0268
     42 CBR       -11.9545   -6.8625   16.7599 C.3         1 SU3      -0.0268
     43 CBS       -11.8763    0.5575    4.8558 C.3         1 SU3      -0.0433
     44 CBT       -11.7580    1.8934    5.6428 C.3         1 SU3      -0.0507
     45 CBU       -10.5253    1.9867    6.5917 C.3         1 SU3      -0.0453
     46 CBV       -10.3877    3.2905    7.4670 C.3         1 SU3      -0.0072
     47 CBW        -8.9974    3.2808    8.1908 C.3         1 SU3       0.0824
     48 CBX       -10.4446    4.5794    6.5795 C.3         1 SU3      -0.0574
     49 CBY       -11.5166    3.3637    8.5460 C.3         1 SU3      -0.0574
     50 CBZ        -4.3760   -0.7364   11.3681 C.3         1 SU3      -0.0558
     51 CCA        -5.6868    1.3990   11.6956 C.3         1 SU3      -0.0558
     52 CD1        -6.3666   -3.0199    8.5301 C.3         1 SU3       0.0677
     53 OD2        -8.0415   -3.9478    7.0345 O.3         1 SU3      -0.2338
     54 H1         -8.7428   -4.2463    9.9487 H           1 SU3       0.0803
     55 H2         -7.9288   -5.9811    8.6403 H           1 SU3       0.0342
     56 H3         -6.2522   -5.7805    9.1991 H           1 SU3       0.0342
     57 H4         -6.0769   -4.6544    7.1104 H           1 SU3       0.0673
     58 H5         -6.0778   -0.5945    9.4995 H           1 SU3       0.0805
     59 H6         -8.4724    0.4568   10.8000 H           1 SU3       0.1899
     60 H7         -6.8344   -7.5528   15.8782 H           1 SU3       0.0265
     61 H8         -8.3575   -7.9737   15.0789 H           1 SU3       0.0265
     62 H9         -6.9028   -9.9085   14.9125 H           1 SU3       0.0230
     63 H10        -5.5542   -8.9251   14.3214 H           1 SU3       0.0230
     64 H11        -6.9810   -9.2051   13.2935 H           1 SU3       0.0230
     65 H12        -5.6817   -0.3231   13.7817 H           1 SU3       0.0237
     66 H13        -6.3050   -1.7661   13.0260 H           1 SU3       0.0237
     67 H14        -7.3396   -0.3326   13.1749 H           1 SU3       0.0237
     68 H15        -9.2012   -4.8170   11.9566 H           1 SU3       0.1839
     69 H16        -6.3054   -6.6110   13.2489 H           1 SU3       0.0312
     70 H17        -7.4209   -5.1267   15.6762 H           1 SU3       0.0279
     71 H18        -6.4895   -4.3814   14.2462 H           1 SU3       0.0279
     72 H19       -10.3829   -5.8214    4.2067 H           1 SU3       0.0373
     73 H20       -10.0433   -2.3473    6.4219 H           1 SU3       0.0361
     74 H21       -12.7691   -5.1351    2.7861 H           1 SU3       0.0557
     75 H22       -14.4282   -3.3669    2.5297 H           1 SU3       0.0599
     76 H23       -14.2706   -1.3442    3.8346 H           1 SU3       0.0557
     77 H24       -11.7923   -0.7798    6.5641 H           1 SU3       0.0426
     78 H25       -13.4216   -0.3869    6.0659 H           1 SU3       0.0426
     79 H26       -10.2726   -6.6751   12.6133 H           1 SU3       0.2148
     80 H27       -12.6958   -4.9817   15.8508 H           1 SU3       0.0559
     81 H28       -13.7800   -7.9183   16.0200 H           1 SU3       0.0285
     82 H29       -14.1169   -6.4851   17.1981 H           1 SU3       0.0285
     83 H30       -11.6856   -6.2994   17.6542 H           1 SU3       0.0285
     84 H31       -11.3634   -7.7322   16.4787 H           1 SU3       0.0285
     85 H32       -12.5543    0.7256    4.0137 H           1 SU3       0.0287
     86 H33       -10.8984    0.2963    4.4408 H           1 SU3       0.0287
     87 H34       -12.6805    2.0528    6.2042 H           1 SU3       0.0267
     88 H35       -11.6820    2.6933    4.9018 H           1 SU3       0.0267
     89 H36        -9.6313    1.8890    5.9693 H           1 SU3       0.0271
     90 H37       -10.5383    1.1247    7.2622 H           1 SU3       0.0271
     91 H38        -8.1980    3.2970    7.4460 H           1 SU3       0.0617
     92 H39        -8.8846    4.1886    8.7898 H           1 SU3       0.0617
     93 H40       -11.4316    4.7108    6.1339 H           1 SU3       0.0236
     94 H41        -9.7093    4.5252    5.7733 H           1 SU3       0.0236
     95 H42       -10.2333    5.4727    7.1723 H           1 SU3       0.0236
     96 H43       -11.5369    2.4533    9.1491 H           1 SU3       0.0236
     97 H44       -12.4969    3.4871    8.0844 H           1 SU3       0.0236
     98 H45       -11.3579    4.2117    9.2169 H           1 SU3       0.0236
     99 H46        -3.9315   -0.3358   10.4535 H           1 SU3       0.0237
    100 H47        -4.4043   -1.8242   11.2850 H           1 SU3       0.0237
    101 H48        -3.7176   -0.4777   12.1992 H           1 SU3       0.0237
    102 H49        -6.6481    1.8517   11.9515 H           1 SU3       0.0237
    103 H50        -5.3512    1.8266   10.7489 H           1 SU3       0.0237
    104 H51        -4.9725    1.6896   12.4712 H           1 SU3       0.0237
    105 H52        -5.2934   -3.0773    8.7328 H           1 SU3       0.0553
    106 H53        -6.5731   -2.1397    7.9143 H           1 SU3       0.0553
@<TRIPOS>BOND
     1     1     3   2
     2     1     4   1
     3    21     1  am
     4     4     2   1
     5     2     7  am
     6     2    52   1
     7     4     5   1
     8     5     6   1
     9     6    52   1
    10     6    53   1
    11     7     8   2
    12     7     9   1
    13     9    10   1
    14     9    13   1
    15    10    11  am
    16    11    12   1
    17    11    14   2
    18    12    47   1
    19    13    20   1
    20    13    50   1
    21    13    51   1
    22    15    16   2
    23    15    17  am
    24    53    15   1
    25    17    26   1
    26    17    29   1
    27    18    19   1
    28    24    18   1
    29    22    21   1
    30    22    23   1
    31    22    24   1
    32    22    25   1
    33    23    35  am
    34    23    36   2
    35    24    25   1
    36    26    27   2
    37    27    28  ar
    38    27    30  ar
    39    28    29   2
    40    28    33  ar
    41    30    31  ar
    42    31    32  ar
    43    32    33  ar
    44    33    34   1
    45    34    43   1
    46    35    37  am
    47    37    38   1
    48    37    39   2
    49    37    40   2
    50    38    41   1
    51    38    42   1
    52    41    42   1
    53    43    44   1
    54    44    45   1
    55    45    46   1
    56    46    47   1
    57    46    48   1
    58    46    49   1
    59     4    54   1
    60     5    55   1
    61     5    56   1
    62     6    57   1
    63     9    58   1
    64    10    59   1
    65    18    60   1
    66    18    61   1
    67    19    62   1
    68    19    63   1
    69    19    64   1
    70    20    65   1
    71    20    66   1
    72    20    67   1
    73    21    68   1
    74    24    69   1
    75    25    70   1
    76    25    71   1
    77    26    72   1
    78    29    73   1
    79    30    74   1
    80    31    75   1
    81    32    76   1
    82    34    77   1
    83    34    78   1
    84    35    79   1
    85    38    80   1
    86    41    81   1
    87    41    82   1
    88    42    83   1
    89    42    84   1
    90    43    85   1
    91    43    86   1
    92    44    87   1
    93    44    88   1
    94    45    89   1
    95    45    90   1
    96    47    91   1
    97    47    92   1
    98    48    93   1
    99    48    94   1
   100    48    95   1
   101    49    96   1
   102    49    97   1
   103    49    98   1
   104    50    99   1
   105    50   100   1
   106    50   101   1
   107    51   102   1
   108    51   103   1
   109    51   104   1
   110    52   105   1
   111    52   106   1
@<TRIPOS>SUBSTRUCTURE
     1  SU3      1

