@<TRIPOS>MOLECULE
3su3_ligand_096
   106   111
SMALL
GAST_HUCK
****
This file was generated by PARSER (from files_GN.cpp)

@<TRIPOS>ATOM
      1 C         -14.2900   -5.9630   11.1072 C.2         1 SU3       0.2013
      2 N         -12.4027   -6.6702    9.6764 N.am        1 SU3      -0.2469
      3 O         -15.2086   -5.1484   11.1901 O.2         1 SU3      -0.3947
      4 CA        -13.8145   -6.3491    9.7798 C.3         1 SU3       0.1363
      5 CB        -14.5431   -7.6117    9.2587 C.3         1 SU3       0.0206
      6 CG        -13.5326   -8.2079    8.2715 C.3         1 SU3       0.1158
      7 CAF       -11.4106   -5.8604   10.0988 C.2         1 SU3       0.2070
      8 OAG       -11.7235   -4.7241   10.4454 O.2         1 SU3      -0.3942
      9 CAH        -9.9677   -6.1760   10.1221 C.3         1 SU3       0.1378
     10 NAI        -9.3239   -5.2155    9.2736 N.am        1 SU3      -0.2407
     11 CAJ        -8.6187   -5.4779    8.1550 C.2         1 SU3       0.3218
     12 OAK        -7.9215   -4.4481    7.6112 O.3         1 SU3      -0.2633
     13 CAL        -9.2721   -6.2291   11.5511 C.3         1 SU3       0.0025
     14 OAM        -8.5216   -6.7324    7.6500 O.2         1 SU3      -0.3774
     15 CAO       -14.5194   -7.5684    6.0369 C.2         1 SU3       0.4317
     16 OAP       -15.5734   -8.4091    6.1737 O.2         1 SU3      -0.3166
     17 NAQ       -14.4202   -6.7460    4.9593 N.am        1 SU3      -0.2080
     18 CAR       -12.5891   -5.9947   15.9011 C.3         1 SU3      -0.0516
     19 CAS       -11.9678   -7.3680   16.2429 C.3         1 SU3      -0.0651
     20 CAT        -7.7393   -6.5257   11.4087 C.3         1 SU3      -0.0558
     21 NAV       -13.7469   -6.4754   12.1990 N.am        1 SU3      -0.2737
     22 CAX       -14.0669   -6.1137   13.5519 C.3         1 SU3       0.1374
     23 CAY       -15.1825   -6.7978   14.2024 C.2         1 SU3       0.2444
     24 CAZ       -12.7786   -5.8199   14.3713 C.3         1 SU3      -0.0066
     25 CBA       -13.7116   -4.6653   13.9647 C.3         1 SU3      -0.0152
     26 CBB       -15.2991   -6.6637    3.9340 C.2         1 SU3       0.0383
     27 CBC       -14.8684   -5.6751    3.0541 C.ar        1 SU3      -0.0374
     28 CBD       -13.6887   -5.1436    3.5707 C.ar        1 SU3      -0.0293
     29 CBE       -13.4370   -5.8431    4.7493 C.2         1 SU3       0.0366
     30 CBF       -15.4190   -5.2017    1.8529 C.ar        1 SU3      -0.0689
     31 CBG       -14.7436   -4.1727    1.1664 C.ar        1 SU3      -0.0688
     32 CBH       -13.5490   -3.6309    1.6857 C.ar        1 SU3      -0.0606
     33 CBI       -13.0009   -4.0991    2.9064 C.ar        1 SU3      -0.0432
     34 CBJ       -11.7411   -3.5137    3.4418 C.3         1 SU3      -0.0194
     35 NBK       -15.8416   -7.7408   13.5444 N.am        1 SU3      -0.1552
     36 OBL       -15.5712   -6.4258   15.3029 O.2         1 SU3      -0.3404
     37 SBM       -17.2278   -8.5355   14.0906 S.o2        1 SU3       0.0645
     38 CBN       -17.5433  -10.0875   13.2124 C.3         1 SU3       0.1004
     39 OBO       -17.0897   -8.8981   15.6348 O.2         1 SU3      -0.1503
     40 OBP       -18.5093   -7.6133   13.8909 O.2         1 SU3      -0.1503
     41 CBQ       -16.3595  -10.9686   12.7786 C.3         1 SU3      -0.0268
     42 CBR       -17.2235  -11.3867   13.9717 C.3         1 SU3      -0.0268
     43 CBS       -10.4868   -4.1270    2.7630 C.3         1 SU3      -0.0433
     44 CBT        -9.1347   -3.5823    3.3047 C.3         1 SU3      -0.0507
     45 CBU        -8.6856   -4.1932    4.6660 C.3         1 SU3      -0.0453
     46 CBV        -7.3482   -3.6447    5.2949 C.3         1 SU3      -0.0072
     47 CBW        -6.9685   -4.5211    6.5373 C.3         1 SU3       0.0824
     48 CBX        -6.1608   -3.7419    4.2811 C.3         1 SU3      -0.0574
     49 CBY        -7.5103   -2.1588    5.7525 C.3         1 SU3      -0.0574
     50 CBZ        -9.3952   -4.8939   12.3619 C.3         1 SU3      -0.0558
     51 CCA        -9.8838   -7.4120   12.3794 C.3         1 SU3      -0.0558
     52 CD1       -12.1930   -7.9019    8.9647 C.3         1 SU3       0.0677
     53 OD2       -13.5732   -7.5178    7.0128 O.3         1 SU3      -0.2338
     54 H1        -14.0106   -5.5298    9.0783 H           1 SU3       0.0803
     55 H2        -15.4941   -7.3631    8.7817 H           1 SU3       0.0342
     56 H3        -14.7293   -8.3332   10.0611 H           1 SU3       0.0342
     57 H4        -13.6707   -9.2811    8.1276 H           1 SU3       0.0673
     58 H5         -9.8129   -7.1724    9.7046 H           1 SU3       0.0805
     59 H6         -9.3409   -4.2985    9.5769 H           1 SU3       0.1899
     60 H7        -11.9061   -5.2095   16.2506 H           1 SU3       0.0265
     61 H8        -13.5338   -5.8871   16.4428 H           1 SU3       0.0265
     62 H9        -11.8051   -7.4263   17.3208 H           1 SU3       0.0230
     63 H10       -11.0064   -7.4965   15.7383 H           1 SU3       0.0230
     64 H11       -12.6421   -8.1698   15.9365 H           1 SU3       0.0230
     65 H12        -7.2773   -6.6786   12.3865 H           1 SU3       0.0237
     66 H13        -7.2205   -5.6987   10.9215 H           1 SU3       0.0237
     67 H14        -7.5761   -7.4238   10.8157 H           1 SU3       0.0237
     68 H15       -13.0587   -7.1537   12.0806 H           1 SU3       0.1839
     69 H16       -11.8450   -5.7732   13.8040 H           1 SU3       0.0312
     70 H17       -14.2850   -4.2099   14.7759 H           1 SU3       0.0279
     71 H18       -13.2957   -4.0122   13.1961 H           1 SU3       0.0279
     72 H19       -16.1486   -7.2182    3.8170 H           1 SU3       0.0373
     73 H20       -12.6337   -5.6827    5.3645 H           1 SU3       0.0361
     74 H21       -16.2860   -5.5959    1.4812 H           1 SU3       0.0557
     75 H22       -15.1259   -3.8148    0.2865 H           1 SU3       0.0599
     76 H23       -13.0816   -2.8827    1.1675 H           1 SU3       0.0557
     77 H24       -11.6841   -3.6645    4.5204 H           1 SU3       0.0426
     78 H25       -11.7501   -2.4315    3.2814 H           1 SU3       0.0426
     79 H26       -15.5227   -7.9747   12.6559 H           1 SU3       0.2148
     80 H27       -18.4374  -10.1530   12.5900 H           1 SU3       0.0559
     81 H28       -15.3514  -10.6480   13.0456 H           1 SU3       0.0285
     82 H29       -16.5076  -11.5645   11.8756 H           1 SU3       0.0285
     83 H30       -17.8846  -12.2346   13.7824 H           1 SU3       0.0285
     84 H31       -16.7336  -11.2991   14.9441 H           1 SU3       0.0285
     85 H32       -10.5377   -3.9032    1.6929 H           1 SU3       0.0287
     86 H33       -10.5070   -5.2155    2.8698 H           1 SU3       0.0287
     87 H34        -9.1988   -2.4966    3.3802 H           1 SU3       0.0267
     88 H35        -8.3767   -3.8172    2.5558 H           1 SU3       0.0267
     89 H36        -8.5849   -5.2728    4.5154 H           1 SU3       0.0271
     90 H37        -9.4912   -4.0520    5.3913 H           1 SU3       0.0271
     91 H38        -6.8176   -5.5578    6.2190 H           1 SU3       0.0617
     92 H39        -6.0163   -4.1828    6.9551 H           1 SU3       0.0617
     93 H40        -6.3027   -3.0642    3.4384 H           1 SU3       0.0236
     94 H41        -6.0685   -4.7590    3.8933 H           1 SU3       0.0236
     95 H42        -5.2159   -3.4742    4.7596 H           1 SU3       0.0236
     96 H43        -8.3684   -2.0473    6.4191 H           1 SU3       0.0236
     97 H44        -7.6578   -1.4966    4.8978 H           1 SU3       0.0236
     98 H45        -6.6193   -1.8192    6.2864 H           1 SU3       0.0236
     99 H46       -10.4393   -4.6575   12.5672 H           1 SU3       0.0237
    100 H47        -8.9503   -4.0571   11.8077 H           1 SU3       0.0237
    101 H48        -8.8814   -4.9802   13.3277 H           1 SU3       0.0237
    102 H49        -9.6150   -8.3746   11.9383 H           1 SU3       0.0237
    103 H50       -10.9708   -7.3588   12.4000 H           1 SU3       0.0237
    104 H51        -9.5194   -7.4036   13.4104 H           1 SU3       0.0237
    105 H52       -11.9238   -8.6948    9.6696 H           1 SU3       0.0553
    106 H53       -11.4128   -7.8171    8.2018 H           1 SU3       0.0553
@<TRIPOS>BOND
     1     1     3   2
     2     1     4   1
     3    21     1  am
     4     4     2   1
     5     2     7  am
     6     2    52   1
     7     4     5   1
     8     5     6   1
     9     6    52   1
    10     6    53   1
    11     7     8   2
    12     7     9   1
    13     9    10   1
    14     9    13   1
    15    10    11  am
    16    11    12   1
    17    11    14   2
    18    12    47   1
    19    13    20   1
    20    13    50   1
    21    13    51   1
    22    15    16   2
    23    15    17  am
    24    53    15   1
    25    17    26   1
    26    17    29   1
    27    18    19   1
    28    24    18   1
    29    22    21   1
    30    22    23   1
    31    22    24   1
    32    22    25   1
    33    23    35  am
    34    23    36   2
    35    24    25   1
    36    26    27   2
    37    27    28  ar
    38    27    30  ar
    39    28    29   2
    40    28    33  ar
    41    30    31  ar
    42    31    32  ar
    43    32    33  ar
    44    33    34   1
    45    34    43   1
    46    35    37  am
    47    37    38   1
    48    37    39   2
    49    37    40   2
    50    38    41   1
    51    38    42   1
    52    41    42   1
    53    43    44   1
    54    44    45   1
    55    45    46   1
    56    46    47   1
    57    46    48   1
    58    46    49   1
    59     4    54   1
    60     5    55   1
    61     5    56   1
    62     6    57   1
    63     9    58   1
    64    10    59   1
    65    18    60   1
    66    18    61   1
    67    19    62   1
    68    19    63   1
    69    19    64   1
    70    20    65   1
    71    20    66   1
    72    20    67   1
    73    21    68   1
    74    24    69   1
    75    25    70   1
    76    25    71   1
    77    26    72   1
    78    29    73   1
    79    30    74   1
    80    31    75   1
    81    32    76   1
    82    34    77   1
    83    34    78   1
    84    35    79   1
    85    38    80   1
    86    41    81   1
    87    41    82   1
    88    42    83   1
    89    42    84   1
    90    43    85   1
    91    43    86   1
    92    44    87   1
    93    44    88   1
    94    45    89   1
    95    45    90   1
    96    47    91   1
    97    47    92   1
    98    48    93   1
    99    48    94   1
   100    48    95   1
   101    49    96   1
   102    49    97   1
   103    49    98   1
   104    50    99   1
   105    50   100   1
   106    50   101   1
   107    51   102   1
   108    51   103   1
   109    51   104   1
   110    52   105   1
   111    52   106   1
@<TRIPOS>SUBSTRUCTURE
     1  SU3      1

