@<TRIPOS>MOLECULE
3su3_ligand_005
   106   111
SMALL
GAST_HUCK
****
This file was generated by PARSER (from files_GN.cpp)

@<TRIPOS>ATOM
      1 C         -13.3404   -8.1106   13.8465 C.2         1 SU3       0.2013
      2 N         -15.1776   -9.7600   13.7734 N.am        1 SU3      -0.2469
      3 O         -14.1075   -7.3077   13.3266 O.2         1 SU3      -0.3947
      4 CA        -13.7707   -9.4957   14.0306 C.3         1 SU3       0.1363
      5 CB        -12.9981  -10.4565   13.0898 C.3         1 SU3       0.0206
      6 CG        -14.0064  -11.5891   12.8463 C.3         1 SU3       0.1158
      7 CAF       -16.1765   -9.1254   14.4028 C.2         1 SU3       0.2070
      8 OAG       -15.8878   -8.4311   15.3727 O.2         1 SU3      -0.3942
      9 CAH       -17.6069   -9.1666   14.0570 C.3         1 SU3       0.1378
     10 NAI       -18.3283   -9.5801   15.2312 N.am        1 SU3      -0.2407
     11 CAJ       -19.1278  -10.6654   15.3453 C.2         1 SU3       0.3218
     12 OAK       -19.8467  -10.8056   16.4909 O.3         1 SU3      -0.2633
     13 CAL       -18.1891   -7.8150   13.4422 C.3         1 SU3       0.0025
     14 OAM       -19.2800  -11.5510   14.3269 O.2         1 SU3      -0.3774
     15 CAO       -13.1116  -13.4761   14.2660 C.2         1 SU3       0.4317
     16 OAP       -12.0275  -13.6647   13.4792 O.2         1 SU3      -0.3166
     17 NAQ       -13.3059  -14.2272   15.3811 N.am        1 SU3      -0.2080
     18 CAR       -12.6983   -3.9297   14.8101 C.3         1 SU3      -0.0516
     19 CAS       -14.0684   -3.4121   15.2980 C.3         1 SU3      -0.0651
     20 CAT       -17.6570   -7.6356   11.9793 C.3         1 SU3      -0.0558
     21 NAV       -12.1182   -7.7367   14.2218 N.am        1 SU3      -0.2737
     22 CAX       -11.6455   -6.3788   14.1961 C.3         1 SU3       0.1374
     23 CAY       -11.1540   -5.8467   12.9256 C.2         1 SU3       0.2444
     24 CAZ       -12.4769   -5.4374   15.1246 C.3         1 SU3      -0.0066
     25 CBA       -11.0580   -5.8776   15.5270 C.3         1 SU3      -0.0152
     26 CBB       -12.5100  -15.2307   15.8168 C.2         1 SU3       0.0383
     27 CBC       -13.0385  -15.7381   16.9962 C.ar        1 SU3      -0.0374
     28 CBD       -14.1871  -15.0070   17.2955 C.ar        1 SU3      -0.0293
     29 CBE       -14.3299  -14.0864   16.2545 C.2         1 SU3       0.0366
     30 CBF       -12.6044  -16.7834   17.8321 C.ar        1 SU3      -0.0689
     31 CBG       -13.3395  -17.0593   19.0010 C.ar        1 SU3      -0.0688
     32 CBH       -14.5017  -16.3171   19.3068 C.ar        1 SU3      -0.0606
     33 CBI       -14.9515  -15.2742   18.4531 C.ar        1 SU3      -0.0432
     34 CBJ       -16.2045  -14.5417   18.7718 C.3         1 SU3      -0.0194
     35 NBK       -11.4635   -6.4665   11.7982 N.am        1 SU3      -0.1552
     36 OBL       -10.4448   -4.8405   12.9051 O.2         1 SU3      -0.3404
     37 SBM       -11.1188   -5.9422   10.2341 S.o2        1 SU3       0.0645
     38 CBN       -12.4520   -5.0636    9.3860 C.3         1 SU3       0.1004
     39 OBO        -9.7517   -5.1330   10.1798 O.2         1 SU3      -0.1503
     40 OBP       -10.7973   -7.2640    9.4054 O.2         1 SU3      -0.1503
     41 CBQ       -13.8913   -5.3616    9.8358 C.3         1 SU3      -0.0268
     42 CBR       -13.2461   -4.0081   10.1711 C.3         1 SU3      -0.0268
     43 CBS       -17.4519  -15.3572   18.3411 C.3         1 SU3      -0.0433
     44 CBT       -18.8053  -14.6680   18.6614 C.3         1 SU3      -0.0507
     45 CBU       -19.2015  -13.5303   17.6708 C.3         1 SU3      -0.0453
     46 CBV       -20.4949  -12.6993   18.0126 C.3         1 SU3      -0.0072
     47 CBW       -20.8525  -11.7855   16.7893 C.3         1 SU3       0.0824
     48 CBX       -21.7162  -13.6398   18.2749 C.3         1 SU3      -0.0574
     49 CBY       -20.2643  -11.7909   19.2653 C.3         1 SU3      -0.0574
     50 CBZ       -19.7597   -7.8705   13.3570 C.3         1 SU3      -0.0558
     51 CCA       -17.8179   -6.5347   14.2598 C.3         1 SU3      -0.0558
     52 CD1       -15.3516  -10.8325   12.8390 C.3         1 SU3       0.0677
     53 OD2       -14.0211  -12.5235   13.9364 O.3         1 SU3      -0.2338
     54 H1        -13.5638   -9.7889   15.0690 H           1 SU3       0.0803
     55 H2        -12.0719  -10.8187   13.5439 H           1 SU3       0.0342
     56 H3        -12.7629   -9.9840   12.1310 H           1 SU3       0.0342
     57 H4        -13.8363  -12.1061   11.8976 H           1 SU3       0.0673
     58 H5        -17.7616   -9.9187   13.2834 H           1 SU3       0.0805
     59 H6        -18.3255   -8.9672   15.9795 H           1 SU3       0.1899
     60 H7        -11.9223   -3.3305   15.2783 H           1 SU3       0.0265
     61 H8        -12.6647   -3.7707   13.7343 H           1 SU3       0.0265
     62 H9        -14.1932   -2.3638   15.0209 H           1 SU3       0.0230
     63 H10       -14.1392   -3.4939   16.3846 H           1 SU3       0.0230
     64 H11       -14.8758   -3.9871   14.8436 H           1 SU3       0.0230
     65 H12       -18.0253   -6.7086   11.5298 H           1 SU3       0.0237
     66 H13       -17.9825   -8.4609   11.3421 H           1 SU3       0.0237
     67 H14       -16.5659   -7.6085   11.9638 H           1 SU3       0.0237
     68 H15       -11.5156   -8.4101   14.5643 H           1 SU3       0.1839
     69 H16       -13.2337   -5.9328   15.7453 H           1 SU3       0.0312
     70 H17       -10.2607   -5.1289   15.4612 H           1 SU3       0.0279
     71 H18       -11.0111   -6.6105   16.3342 H           1 SU3       0.0279
     72 H19       -11.6585  -15.5672   15.3650 H           1 SU3       0.0373
     73 H20       -15.0892  -13.4035   16.1782 H           1 SU3       0.0361
     74 H21       -11.7717  -17.3274   17.5984 H           1 SU3       0.0557
     75 H22       -13.0334  -17.8044   19.6297 H           1 SU3       0.0599
     76 H23       -15.0216  -16.5462   20.1536 H           1 SU3       0.0557
     77 H24       -16.2115  -13.5719   18.2744 H           1 SU3       0.0426
     78 H25       -16.2441  -14.3436   19.8456 H           1 SU3       0.0426
     79 H26       -11.9838   -7.2871   11.8660 H           1 SU3       0.2148
     80 H27       -12.3236   -4.8522    8.3242 H           1 SU3       0.0559
     81 H28       -14.0360   -6.0198   10.6941 H           1 SU3       0.0285
     82 H29       -14.6504   -5.3250    9.0536 H           1 SU3       0.0285
     83 H30       -13.6267   -3.1671    9.5901 H           1 SU3       0.0285
     84 H31       -12.9910   -3.8643   11.2199 H           1 SU3       0.0285
     85 H32       -17.4355  -16.3188   18.8664 H           1 SU3       0.0287
     86 H33       -17.4032  -15.5718   17.2680 H           1 SU3       0.0287
     87 H34       -18.7737  -14.2893   19.6857 H           1 SU3       0.0267
     88 H35       -19.5780  -15.4410   18.6217 H           1 SU3       0.0267
     89 H36       -19.3330  -13.9952   16.6903 H           1 SU3       0.0271
     90 H37       -18.3639  -12.8381   17.5818 H           1 SU3       0.0271
     91 H38       -21.0591  -12.4094   15.9142 H           1 SU3       0.0617
     92 H39       -21.7674  -11.2272   16.9986 H           1 SU3       0.0617
     93 H40       -21.5629  -14.2526   19.1647 H           1 SU3       0.0236
     94 H41       -21.8770  -14.3107   17.4268 H           1 SU3       0.0236
     95 H42       -22.6330  -13.0618   18.4290 H           1 SU3       0.0236
     96 H43       -19.4272  -11.1097   19.1042 H           1 SU3       0.0236
     97 H44       -20.0442  -12.3809   20.1559 H           1 SU3       0.0236
     98 H45       -21.1532  -11.1902   19.4750 H           1 SU3       0.0236
     99 H46       -20.2023   -7.8692   14.3533 H           1 SU3       0.0237
    100 H47       -20.0850   -8.7727   12.8374 H           1 SU3       0.0237
    101 H48       -20.1596   -7.0057   12.8200 H           1 SU3       0.0237
    102 H49       -16.7428   -6.3437   14.2197 H           1 SU3       0.0237
    103 H50       -18.1047   -6.6491   15.3051 H           1 SU3       0.0237
    104 H51       -18.3225   -5.6500   13.8645 H           1 SU3       0.0237
    105 H52       -15.5707  -10.4324   11.8448 H           1 SU3       0.0553
    106 H53       -16.1461  -11.5249   13.1329 H           1 SU3       0.0553
@<TRIPOS>BOND
     1     1     3   2
     2     1     4   1
     3    21     1  am
     4     4     2   1
     5     2     7  am
     6     2    52   1
     7     4     5   1
     8     5     6   1
     9     6    52   1
    10     6    53   1
    11     7     8   2
    12     7     9   1
    13     9    10   1
    14     9    13   1
    15    10    11  am
    16    11    12   1
    17    11    14   2
    18    12    47   1
    19    13    20   1
    20    13    50   1
    21    13    51   1
    22    15    16   2
    23    15    17  am
    24    53    15   1
    25    17    26   1
    26    17    29   1
    27    18    19   1
    28    24    18   1
    29    22    21   1
    30    22    23   1
    31    22    24   1
    32    22    25   1
    33    23    35  am
    34    23    36   2
    35    24    25   1
    36    26    27   2
    37    27    28  ar
    38    27    30  ar
    39    28    29   2
    40    28    33  ar
    41    30    31  ar
    42    31    32  ar
    43    32    33  ar
    44    33    34   1
    45    34    43   1
    46    35    37  am
    47    37    38   1
    48    37    39   2
    49    37    40   2
    50    38    41   1
    51    38    42   1
    52    41    42   1
    53    43    44   1
    54    44    45   1
    55    45    46   1
    56    46    47   1
    57    46    48   1
    58    46    49   1
    59     4    54   1
    60     5    55   1
    61     5    56   1
    62     6    57   1
    63     9    58   1
    64    10    59   1
    65    18    60   1
    66    18    61   1
    67    19    62   1
    68    19    63   1
    69    19    64   1
    70    20    65   1
    71    20    66   1
    72    20    67   1
    73    21    68   1
    74    24    69   1
    75    25    70   1
    76    25    71   1
    77    26    72   1
    78    29    73   1
    79    30    74   1
    80    31    75   1
    81    32    76   1
    82    34    77   1
    83    34    78   1
    84    35    79   1
    85    38    80   1
    86    41    81   1
    87    41    82   1
    88    42    83   1
    89    42    84   1
    90    43    85   1
    91    43    86   1
    92    44    87   1
    93    44    88   1
    94    45    89   1
    95    45    90   1
    96    47    91   1
    97    47    92   1
    98    48    93   1
    99    48    94   1
   100    48    95   1
   101    49    96   1
   102    49    97   1
   103    49    98   1
   104    50    99   1
   105    50   100   1
   106    50   101   1
   107    51   102   1
   108    51   103   1
   109    51   104   1
   110    52   105   1
   111    52   106   1
@<TRIPOS>SUBSTRUCTURE
     1  SU3      1

