@<TRIPOS>MOLECULE
3su3_ligand_092
   106   111
SMALL
GAST_HUCK
****
This file was generated by PARSER (from files_GN.cpp)

@<TRIPOS>ATOM
      1 C          -7.1274   -4.4886    8.1756 C.2         1 SU3       0.2013
      2 N          -9.2320   -5.6562    8.4990 N.am        1 SU3      -0.2469
      3 O          -6.7739   -5.2814    7.3115 O.2         1 SU3      -0.3947
      4 CA         -8.1782   -4.8853    9.1142 C.3         1 SU3       0.1363
      5 CB         -7.6250   -5.7599   10.2641 C.3         1 SU3       0.0206
      6 CG         -8.7569   -6.7590   10.5423 C.3         1 SU3       0.1158
      7 CAF        -9.9744   -5.2207    7.4622 C.2         1 SU3       0.2070
      8 OAG        -9.8806   -4.0430    7.1430 O.2         1 SU3      -0.3942
      9 CAH       -10.8974   -6.0454    6.6628 C.3         1 SU3       0.1378
     10 NAI       -12.2395   -5.6112    6.9500 N.am        1 SU3      -0.2407
     11 CAJ       -13.2622   -6.3971    7.3634 C.2         1 SU3       0.3218
     12 OAK       -14.5128   -5.8568    7.3705 O.3         1 SU3      -0.2633
     13 CAL       -10.6190   -6.0964    5.0995 C.3         1 SU3       0.0025
     14 OAM       -13.0839   -7.7108    7.6342 O.2         1 SU3      -0.3774
     15 CAO        -9.6122   -6.0513   12.8151 C.2         1 SU3       0.4317
     16 OAP        -8.4497   -6.3626   13.4336 O.2         1 SU3      -0.3166
     17 NAQ       -10.6645   -5.5595   13.5186 N.am        1 SU3      -0.2080
     18 CAR        -4.1499   -0.4221    7.0067 C.3         1 SU3      -0.0516
     19 CAS        -4.9061    0.9203    7.0658 C.3         1 SU3      -0.0651
     20 CAT       -10.7832   -4.7130    4.3862 C.3         1 SU3      -0.0558
     21 NAV        -6.6099   -3.2647    8.2102 N.am        1 SU3      -0.2737
     22 CAX        -5.6164   -2.7433    7.3245 C.3         1 SU3       0.1374
     23 CAY        -5.8546   -2.8463    5.8977 C.2         1 SU3       0.2444
     24 CAZ        -4.8474   -1.5075    7.8718 C.3         1 SU3      -0.0066
     25 CBA        -4.1600   -2.8833    7.8154 C.3         1 SU3      -0.0152
     26 CBB       -10.6873   -5.3183   14.8501 C.2         1 SU3       0.0383
     27 CBC       -11.9353   -4.8088   15.1906 C.ar        1 SU3      -0.0374
     28 CBD       -12.6968   -4.7516   14.0239 C.ar        1 SU3      -0.0293
     29 CBE       -11.8722   -5.2273   13.0071 C.2         1 SU3       0.0366
     30 CBF       -12.4628   -4.4027   16.4271 C.ar        1 SU3      -0.0689
     31 CBG       -13.7951   -3.9433   16.4688 C.ar        1 SU3      -0.0688
     32 CBH       -14.5709   -3.8948   15.2909 C.ar        1 SU3      -0.0606
     33 CBI       -14.0361   -4.2927   14.0400 C.ar        1 SU3      -0.0432
     34 CBJ       -14.8763   -4.2755   12.8149 C.3         1 SU3      -0.0194
     35 NBK        -5.5845   -3.9823    5.2828 N.am        1 SU3      -0.1552
     36 OBL        -6.3513   -1.8967    5.3067 O.2         1 SU3      -0.3404
     37 SBM        -5.7061   -4.2845    3.6290 S.o2        1 SU3       0.0645
     38 CBN        -4.7507   -5.7870    3.3101 C.3         1 SU3       0.1004
     39 OBO        -7.2190   -4.4675    3.1725 O.2         1 SU3      -0.1503
     40 OBP        -4.9735   -3.1276    2.8139 O.2         1 SU3      -0.1503
     41 CBQ        -5.5077   -7.1248    3.3641 C.3         1 SU3      -0.0268
     42 CBR        -4.9814   -6.5964    2.0241 C.3         1 SU3      -0.0268
     43 CBS       -15.7297   -5.5664   12.6872 C.3         1 SU3      -0.0433
     44 CBT       -16.6076   -5.6276   11.4080 C.3         1 SU3      -0.0507
     45 CBU       -15.8343   -5.9969   10.1046 C.3         1 SU3      -0.0453
     46 CBV       -16.6320   -5.9173    8.7500 C.3         1 SU3      -0.0072
     47 CBW       -15.7610   -6.5328    7.6004 C.3         1 SU3       0.0824
     48 CBX       -17.9601   -6.7431    8.8228 C.3         1 SU3      -0.0574
     49 CBY       -16.9742   -4.4350    8.3873 C.3         1 SU3      -0.0574
     50 CBZ        -9.1703   -6.6263    4.8274 C.3         1 SU3      -0.0558
     51 CCA       -11.6200   -7.0991    4.4231 C.3         1 SU3      -0.0558
     52 CD1        -9.4367   -6.9079    9.1703 C.3         1 SU3       0.0677
     53 OD2        -9.7207   -6.2514   11.4750 O.3         1 SU3      -0.2338
     54 H1         -8.6340   -4.0013    9.5669 H           1 SU3       0.0803
     55 H2         -7.3834   -5.1631   11.1442 H           1 SU3       0.0342
     56 H3         -6.7265   -6.3088    9.9742 H           1 SU3       0.0342
     57 H4         -8.3846   -7.7196   10.9021 H           1 SU3       0.0673
     58 H5        -10.7901   -7.0812    6.9870 H           1 SU3       0.0805
     59 H6        -12.4546   -4.6885    6.7437 H           1 SU3       0.1899
     60 H7         -3.1346   -0.2733    7.3900 H           1 SU3       0.0265
     61 H8         -4.0717   -0.7426    5.9604 H           1 SU3       0.0265
     62 H9         -4.3970    1.6535    6.4349 H           1 SU3       0.0230
     63 H10        -4.9206    1.2947    8.0980 H           1 SU3       0.0230
     64 H11        -5.9379    0.7965    6.7138 H           1 SU3       0.0230
     65 H12       -10.7239   -4.8249    3.3007 H           1 SU3       0.0237
     66 H13        -9.9966   -4.0164    4.6755 H           1 SU3       0.0237
     67 H14       -11.7475   -4.2612    4.6227 H           1 SU3       0.0237
     68 H15        -6.9066   -2.6665    8.9066 H           1 SU3       0.1839
     69 H16        -5.0775   -1.2288    8.9051 H           1 SU3       0.0312
     70 H17        -3.3779   -2.9973    7.0586 H           1 SU3       0.0279
     71 H18        -4.0200   -3.3614    8.7819 H           1 SU3       0.0279
     72 H19        -9.9188   -5.4745   15.5080 H           1 SU3       0.0373
     73 H20       -12.1412   -5.3114   12.0236 H           1 SU3       0.0361
     74 H21       -11.8989   -4.4502   17.2783 H           1 SU3       0.0557
     75 H22       -14.2034   -3.6473   17.3582 H           1 SU3       0.0599
     76 H23       -15.5358   -3.5624   15.3499 H           1 SU3       0.0557
     77 H24       -14.2458   -4.1590   11.9338 H           1 SU3       0.0426
     78 H25       -15.5344   -3.4043   12.8411 H           1 SU3       0.0426
     79 H26        -5.2304   -4.7021    5.8211 H           1 SU3       0.2148
     80 H27        -3.7413   -5.8476    3.7294 H           1 SU3       0.0559
     81 H28        -6.5937   -7.0866    3.4835 H           1 SU3       0.0285
     82 H29        -4.9574   -7.9714    3.7793 H           1 SU3       0.0285
     83 H30        -4.1209   -7.1359    1.6314 H           1 SU3       0.0285
     84 H31        -5.7497   -6.2375    1.3365 H           1 SU3       0.0285
     85 H32       -16.3942   -5.6206   13.5548 H           1 SU3       0.0287
     86 H33       -15.0807   -6.4454   12.7190 H           1 SU3       0.0287
     87 H34       -17.1175   -4.6716   11.2903 H           1 SU3       0.0267
     88 H35       -17.3749   -6.3880   11.5764 H           1 SU3       0.0267
     89 H36       -15.4582   -7.0152   10.2321 H           1 SU3       0.0271
     90 H37       -14.9609   -5.3470   10.0220 H           1 SU3       0.0271
     91 H38       -15.5901   -7.5947    7.7996 H           1 SU3       0.0617
     92 H39       -16.3073   -6.4777    6.6547 H           1 SU3       0.0617
     93 H40       -18.6597   -6.3050    9.5358 H           1 SU3       0.0236
     94 H41       -17.7574   -7.7725    9.1298 H           1 SU3       0.0236
     95 H42       -18.4585   -6.7711    7.8496 H           1 SU3       0.0236
     96 H43       -16.0709   -3.8204    8.3735 H           1 SU3       0.0236
     97 H44       -17.6684   -4.0025    9.1102 H           1 SU3       0.0236
     98 H45       -17.4432   -4.3733    7.4016 H           1 SU3       0.0236
     99 H46        -9.0263   -7.6051    5.2905 H           1 SU3       0.0237
    100 H47        -8.4187   -5.9438    5.2326 H           1 SU3       0.0237
    101 H48        -8.9891   -6.7266    3.7528 H           1 SU3       0.0237
    102 H49       -12.6523   -6.7420    4.5124 H           1 SU3       0.0237
    103 H50       -11.5617   -8.0868    4.8861 H           1 SU3       0.0237
    104 H51       -11.4035   -7.2160    3.3567 H           1 SU3       0.0237
    105 H52        -8.9745   -7.7097    8.5936 H           1 SU3       0.0553
    106 H53       -10.4971   -7.1366    9.3109 H           1 SU3       0.0553
@<TRIPOS>BOND
     1     1     3   2
     2     1     4   1
     3    21     1  am
     4     4     2   1
     5     2     7  am
     6     2    52   1
     7     4     5   1
     8     5     6   1
     9     6    52   1
    10     6    53   1
    11     7     8   2
    12     7     9   1
    13     9    10   1
    14     9    13   1
    15    10    11  am
    16    11    12   1
    17    11    14   2
    18    12    47   1
    19    13    20   1
    20    13    50   1
    21    13    51   1
    22    15    16   2
    23    15    17  am
    24    53    15   1
    25    17    26   1
    26    17    29   1
    27    18    19   1
    28    24    18   1
    29    22    21   1
    30    22    23   1
    31    22    24   1
    32    22    25   1
    33    23    35  am
    34    23    36   2
    35    24    25   1
    36    26    27   2
    37    27    28  ar
    38    27    30  ar
    39    28    29   2
    40    28    33  ar
    41    30    31  ar
    42    31    32  ar
    43    32    33  ar
    44    33    34   1
    45    34    43   1
    46    35    37  am
    47    37    38   1
    48    37    39   2
    49    37    40   2
    50    38    41   1
    51    38    42   1
    52    41    42   1
    53    43    44   1
    54    44    45   1
    55    45    46   1
    56    46    47   1
    57    46    48   1
    58    46    49   1
    59     4    54   1
    60     5    55   1
    61     5    56   1
    62     6    57   1
    63     9    58   1
    64    10    59   1
    65    18    60   1
    66    18    61   1
    67    19    62   1
    68    19    63   1
    69    19    64   1
    70    20    65   1
    71    20    66   1
    72    20    67   1
    73    21    68   1
    74    24    69   1
    75    25    70   1
    76    25    71   1
    77    26    72   1
    78    29    73   1
    79    30    74   1
    80    31    75   1
    81    32    76   1
    82    34    77   1
    83    34    78   1
    84    35    79   1
    85    38    80   1
    86    41    81   1
    87    41    82   1
    88    42    83   1
    89    42    84   1
    90    43    85   1
    91    43    86   1
    92    44    87   1
    93    44    88   1
    94    45    89   1
    95    45    90   1
    96    47    91   1
    97    47    92   1
    98    48    93   1
    99    48    94   1
   100    48    95   1
   101    49    96   1
   102    49    97   1
   103    49    98   1
   104    50    99   1
   105    50   100   1
   106    50   101   1
   107    51   102   1
   108    51   103   1
   109    51   104   1
   110    52   105   1
   111    52   106   1
@<TRIPOS>SUBSTRUCTURE
     1  SU3      1

