@<TRIPOS>MOLECULE
3su3_ligand_054
   106   111
SMALL
GAST_HUCK
****
This file was generated by PARSER (from files_GN.cpp)

@<TRIPOS>ATOM
      1 C         -23.5878   -9.4847   13.8180 C.2         1 SU3       0.2013
      2 N         -21.2447   -9.7124   13.3066 N.am        1 SU3      -0.2469
      3 O         -23.9009  -10.6694   13.8633 O.2         1 SU3      -0.3947
      4 CA        -22.4903   -9.0768   12.9382 C.3         1 SU3       0.1363
      5 CB        -22.7266   -9.4439   11.4477 C.3         1 SU3       0.0206
      6 CG        -21.3407   -9.8875   10.9480 C.3         1 SU3       0.1158
      7 CAF       -20.6823   -9.6005   14.5232 C.2         1 SU3       0.2070
      8 OAG       -21.1504   -8.7626   15.2903 O.2         1 SU3      -0.3942
      9 CAH       -19.5615  -10.4054   15.0350 C.3         1 SU3       0.1378
     10 NAI       -18.4295   -9.5244   15.1669 N.am        1 SU3      -0.2407
     11 CAJ       -17.1799   -9.7188   14.6874 C.2         1 SU3       0.3218
     12 OAK       -16.2065   -8.8652   15.1154 O.3         1 SU3      -0.2633
     13 CAL       -19.8372  -11.2009   16.3847 C.3         1 SU3       0.0025
     14 OAM       -16.8778  -10.7868   13.9129 O.2         1 SU3      -0.3774
     15 CAO       -20.6885   -8.0754    9.3201 C.2         1 SU3       0.4317
     16 OAP       -21.6687   -8.4084    8.4450 O.2         1 SU3      -0.3166
     17 NAQ       -19.8355   -7.0555    9.0502 N.am        1 SU3      -0.2080
     18 CAR       -25.7126  -10.7539   17.4419 C.3         1 SU3      -0.0516
     19 CAS       -25.2817  -11.1695   18.8657 C.3         1 SU3      -0.0651
     20 CAT       -21.2011  -11.9734   16.3236 C.3         1 SU3      -0.0558
     21 NAV       -24.1495   -8.6041   14.6353 N.am        1 SU3      -0.2737
     22 CAX       -25.1807   -8.8948   15.5866 C.3         1 SU3       0.1374
     23 CAY       -26.5251   -8.7642   15.0695 C.2         1 SU3       0.2444
     24 CAZ       -24.7397   -9.7081   16.8325 C.3         1 SU3      -0.0066
     25 CBA       -25.0187   -8.2036   16.9604 C.3         1 SU3      -0.0152
     26 CBB       -19.8443   -6.2736    7.9454 C.2         1 SU3       0.0383
     27 CBC       -18.8120   -5.3492    8.0432 C.ar        1 SU3      -0.0374
     28 CBD       -18.1610   -5.5768    9.2515 C.ar        1 SU3      -0.0293
     29 CBE       -18.8200   -6.6479    9.8481 C.2         1 SU3       0.0366
     30 CBF       -18.3901   -4.3348    7.1642 C.ar        1 SU3      -0.0689
     31 CBG       -17.2817   -3.5488    7.5326 C.ar        1 SU3      -0.0688
     32 CBH       -16.6181   -3.7768    8.7587 C.ar        1 SU3      -0.0606
     33 CBI       -17.0474   -4.7929    9.6489 C.ar        1 SU3      -0.0432
     34 CBJ       -16.3279   -5.0278   10.9286 C.3         1 SU3      -0.0194
     35 NBK       -26.8677   -7.6163   14.5078 N.am        1 SU3      -0.1552
     36 OBL       -27.2638   -9.7452   15.0836 O.2         1 SU3      -0.3404
     37 SBM       -28.3626   -7.3143   13.7915 S.o2        1 SU3       0.0645
     38 CBN       -29.7952   -7.6523   14.8427 C.3         1 SU3       0.1004
     39 OBO       -28.3752   -5.7886   13.3419 O.2         1 SU3      -0.1503
     40 OBP       -28.4582   -8.1253   12.4228 O.2         1 SU3      -0.1503
     41 CBQ       -29.6214   -7.4833   16.3613 C.3         1 SU3      -0.0268
     42 CBR       -30.4570   -6.4711   15.5713 C.3         1 SU3      -0.0268
     43 CBS       -15.0326   -5.8585   10.7168 C.3         1 SU3      -0.0433
     44 CBT       -14.2543   -6.1688   12.0252 C.3         1 SU3      -0.0507
     45 CBU       -14.8450   -7.3411   12.8665 C.3         1 SU3      -0.0453
     46 CBV       -14.1826   -7.6254   14.2659 C.3         1 SU3      -0.0072
     47 CBW       -14.7940   -8.9410   14.8620 C.3         1 SU3       0.0824
     48 CBX       -12.6378   -7.8452   14.1342 C.3         1 SU3      -0.0574
     49 CBY       -14.4420   -6.4413   15.2547 C.3         1 SU3      -0.0574
     50 CBZ       -18.7143  -12.2752   16.5952 C.3         1 SU3      -0.0558
     51 CCA       -19.8412  -10.2742   17.6488 C.3         1 SU3      -0.0558
     52 CD1       -20.6844  -10.4578   12.2179 C.3         1 SU3       0.0677
     53 OD2       -20.5511   -8.7854   10.4736 O.3         1 SU3      -0.2338
     54 H1        -22.3436   -7.9908   12.9925 H           1 SU3       0.0803
     55 H2        -23.1129   -8.5941   10.8780 H           1 SU3       0.0342
     56 H3        -23.4264  -10.2783   11.3344 H           1 SU3       0.0342
     57 H4        -21.4089  -10.6550   10.1707 H           1 SU3       0.0673
     58 H5        -19.3309  -11.1702   14.2917 H           1 SU3       0.0805
     59 H6        -18.5532   -8.7499   15.7343 H           1 SU3       0.1899
     60 H7        -26.7324  -10.3653   17.4736 H           1 SU3       0.0265
     61 H8        -25.7013  -11.6452   16.8123 H           1 SU3       0.0265
     62 H9        -26.0087  -11.8663   19.2877 H           1 SU3       0.0230
     63 H10       -25.2144  -10.2969   19.5176 H           1 SU3       0.0230
     64 H11       -24.3082  -11.6648   18.8360 H           1 SU3       0.0230
     65 H12       -21.3612  -12.5629   17.2338 H           1 SU3       0.0237
     66 H13       -21.2231  -12.6579   15.4697 H           1 SU3       0.0237
     67 H14       -22.0462  -11.2797   16.2303 H           1 SU3       0.0237
     68 H15       -23.8805   -7.6788   14.5476 H           1 SU3       0.1839
     69 H16       -23.6660   -9.9609   16.8485 H           1 SU3       0.0312
     70 H17       -25.9200   -7.9582   17.5313 H           1 SU3       0.0279
     71 H18       -24.1299   -7.5907   17.1122 H           1 SU3       0.0279
     72 H19       -20.4941   -6.3442    7.1584 H           1 SU3       0.0373
     73 H20       -18.5698   -7.0649   10.7481 H           1 SU3       0.0361
     74 H21       -18.8721   -4.1773    6.2775 H           1 SU3       0.0557
     75 H22       -16.9538   -2.8098    6.9064 H           1 SU3       0.0599
     76 H23       -15.8135   -3.1921    8.9982 H           1 SU3       0.0557
     77 H24       -16.9772   -5.5393   11.6397 H           1 SU3       0.0426
     78 H25       -16.0733   -4.0645   11.3799 H           1 SU3       0.0426
     79 H26       -26.2045   -6.8994   14.4952 H           1 SU3       0.2148
     80 H27       -30.4737   -8.4576   14.5488 H           1 SU3       0.0559
     81 H28       -28.6666   -7.0968   16.7262 H           1 SU3       0.0285
     82 H29       -30.1991   -8.1615   16.9944 H           1 SU3       0.0285
     83 H30       -31.5371   -6.5439   15.7222 H           1 SU3       0.0285
     84 H31       -29.9982   -5.4859   15.4613 H           1 SU3       0.0285
     85 H32       -14.3689   -5.2919   10.0565 H           1 SU3       0.0287
     86 H33       -15.2751   -6.7973   10.2099 H           1 SU3       0.0287
     87 H34       -14.2019   -5.2589   12.6258 H           1 SU3       0.0267
     88 H35       -13.2331   -6.4339   11.7407 H           1 SU3       0.0267
     89 H36       -14.7738   -8.2453   12.2541 H           1 SU3       0.0271
     90 H37       -15.9094   -7.1519   13.0241 H           1 SU3       0.0271
     91 H38       -14.5630   -9.7837   14.2036 H           1 SU3       0.0617
     92 H39       -14.3228   -9.1570   15.8239 H           1 SU3       0.0617
     93 H40       -12.1333   -6.9332   13.8107 H           1 SU3       0.0236
     94 H41       -12.4203   -8.6324   13.4084 H           1 SU3       0.0236
     95 H42       -12.2019   -8.1376   15.0930 H           1 SU3       0.0236
     96 H43       -15.5049   -6.1936   15.2947 H           1 SU3       0.0236
     97 H44       -13.8999   -5.5446   14.9499 H           1 SU3       0.0236
     98 H45       -14.1135   -6.6979   16.2649 H           1 SU3       0.0236
     99 H46       -17.7303  -11.8092   16.6450 H           1 SU3       0.0237
    100 H47       -18.7073  -12.9955   15.7741 H           1 SU3       0.0237
    101 H48       -18.8692  -12.8323   17.5230 H           1 SU3       0.0237
    102 H49       -20.5970   -9.4922   17.5790 H           1 SU3       0.0237
    103 H50       -18.8695   -9.7937   17.7815 H           1 SU3       0.0237
    104 H51       -20.0491  -10.8470   18.5543 H           1 SU3       0.0237
    105 H52       -20.9263  -11.5191   12.3355 H           1 SU3       0.0553
    106 H53       -19.5979  -10.3438   12.1475 H           1 SU3       0.0553
@<TRIPOS>BOND
     1     1     3   2
     2     1     4   1
     3    21     1  am
     4     4     2   1
     5     2     7  am
     6     2    52   1
     7     4     5   1
     8     5     6   1
     9     6    52   1
    10     6    53   1
    11     7     8   2
    12     7     9   1
    13     9    10   1
    14     9    13   1
    15    10    11  am
    16    11    12   1
    17    11    14   2
    18    12    47   1
    19    13    20   1
    20    13    50   1
    21    13    51   1
    22    15    16   2
    23    15    17  am
    24    53    15   1
    25    17    26   1
    26    17    29   1
    27    18    19   1
    28    24    18   1
    29    22    21   1
    30    22    23   1
    31    22    24   1
    32    22    25   1
    33    23    35  am
    34    23    36   2
    35    24    25   1
    36    26    27   2
    37    27    28  ar
    38    27    30  ar
    39    28    29   2
    40    28    33  ar
    41    30    31  ar
    42    31    32  ar
    43    32    33  ar
    44    33    34   1
    45    34    43   1
    46    35    37  am
    47    37    38   1
    48    37    39   2
    49    37    40   2
    50    38    41   1
    51    38    42   1
    52    41    42   1
    53    43    44   1
    54    44    45   1
    55    45    46   1
    56    46    47   1
    57    46    48   1
    58    46    49   1
    59     4    54   1
    60     5    55   1
    61     5    56   1
    62     6    57   1
    63     9    58   1
    64    10    59   1
    65    18    60   1
    66    18    61   1
    67    19    62   1
    68    19    63   1
    69    19    64   1
    70    20    65   1
    71    20    66   1
    72    20    67   1
    73    21    68   1
    74    24    69   1
    75    25    70   1
    76    25    71   1
    77    26    72   1
    78    29    73   1
    79    30    74   1
    80    31    75   1
    81    32    76   1
    82    34    77   1
    83    34    78   1
    84    35    79   1
    85    38    80   1
    86    41    81   1
    87    41    82   1
    88    42    83   1
    89    42    84   1
    90    43    85   1
    91    43    86   1
    92    44    87   1
    93    44    88   1
    94    45    89   1
    95    45    90   1
    96    47    91   1
    97    47    92   1
    98    48    93   1
    99    48    94   1
   100    48    95   1
   101    49    96   1
   102    49    97   1
   103    49    98   1
   104    50    99   1
   105    50   100   1
   106    50   101   1
   107    51   102   1
   108    51   103   1
   109    51   104   1
   110    52   105   1
   111    52   106   1
@<TRIPOS>SUBSTRUCTURE
     1  SU3      1

