@<TRIPOS>MOLECULE
3su3_ligand_098
   106   111
SMALL
GAST_HUCK
****
This file was generated by PARSER (from files_GN.cpp)

@<TRIPOS>ATOM
      1 C         -13.7331  -11.4880    9.9609 C.2         1 SU3       0.2013
      2 N         -15.3736  -12.4704   11.4857 N.am        1 SU3      -0.2469
      3 O         -14.5853  -10.8191    9.3901 O.2         1 SU3      -0.3947
      4 CA        -14.1559  -12.6613   10.7235 C.3         1 SU3       0.1363
      5 CB        -14.4406  -13.8511    9.7704 C.3         1 SU3       0.0206
      6 CG        -15.6014  -14.5922   10.4487 C.3         1 SU3       0.1158
      7 CAF       -15.5357  -11.5173   12.4252 C.2         1 SU3       0.2070
      8 OAG       -14.5425  -10.8960   12.7851 O.2         1 SU3      -0.3942
      9 CAH       -16.8093  -11.1424   13.0684 C.3         1 SU3       0.1378
     10 NAI       -16.7049  -11.4649   14.4670 N.am        1 SU3      -0.2407
     11 CAJ       -17.5381  -12.2569   15.1789 C.2         1 SU3       0.3218
     12 OAK       -17.3452  -12.3008   16.5227 O.3         1 SU3      -0.2633
     13 CAL       -17.2868   -9.6438   12.8507 C.3         1 SU3       0.0025
     14 OAM       -18.5816  -12.9038   14.6068 O.2         1 SU3      -0.3774
     15 CAO       -14.5074  -16.7121   11.2565 C.2         1 SU3       0.4317
     16 OAP       -14.2861  -17.1674    9.9993 O.2         1 SU3      -0.3166
     17 NAQ       -14.1145  -17.4328   12.3354 N.am        1 SU3      -0.2080
     18 CAR        -9.5986   -9.4029    7.8181 C.3         1 SU3      -0.0516
     19 CAS        -8.2704  -10.0736    7.4015 C.3         1 SU3      -0.0651
     20 CAT       -18.7184   -9.4587   13.4658 C.3         1 SU3      -0.0558
     21 NAV       -12.4445  -11.2084    9.8249 N.am        1 SU3      -0.2737
     22 CAX       -11.9145  -10.1064    9.0819 C.3         1 SU3       0.1374
     23 CAY       -11.9941   -8.7884    9.7132 C.2         1 SU3       0.2444
     24 CAZ       -10.6904  -10.4469    8.1913 C.3         1 SU3      -0.0066
     25 CBA       -12.0771  -10.2406    7.5508 C.3         1 SU3      -0.0152
     26 CBB       -13.5016  -18.6383   12.3128 C.2         1 SU3       0.0383
     27 CBC       -13.2595  -19.0410   13.6207 C.ar        1 SU3      -0.0374
     28 CBD       -13.7366  -18.0369   14.4615 C.ar        1 SU3      -0.0293
     29 CBE       -14.2682  -17.0580   13.6269 C.2         1 SU3       0.0366
     30 CBF       -12.6648  -20.2042   14.1350 C.ar        1 SU3      -0.0689
     31 CBG       -12.5598  -20.3403   15.5334 C.ar        1 SU3      -0.0688
     32 CBH       -13.0390  -19.3232   16.3886 C.ar        1 SU3      -0.0606
     33 CBI       -13.6336  -18.1449   15.8698 C.ar        1 SU3      -0.0432
     34 CBJ       -14.1453  -17.0896   16.7862 C.3         1 SU3      -0.0194
     35 NBK       -11.6062   -8.6841   10.9775 N.am        1 SU3      -0.1552
     36 OBL       -12.4193   -7.8276    9.0957 O.2         1 SU3      -0.3404
     37 SBM       -11.5893   -7.2590   11.8854 S.o2        1 SU3       0.0645
     38 CBN        -9.9974   -6.4098   11.8306 C.3         1 SU3       0.1004
     39 OBO       -12.7959   -6.3257   11.4263 O.2         1 SU3      -0.1503
     40 OBP       -11.9271   -7.6702   13.3830 O.2         1 SU3      -0.1503
     41 CBQ        -9.9891   -4.8961   12.0990 C.3         1 SU3      -0.0268
     42 CBR        -9.4015   -5.8556   13.1357 C.3         1 SU3      -0.0268
     43 CBS       -15.5622  -17.4328   17.3200 C.3         1 SU3      -0.0433
     44 CBT       -16.1697  -16.3536   18.2601 C.3         1 SU3      -0.0507
     45 CBU       -16.8026  -15.1328   17.5244 C.3         1 SU3      -0.0453
     46 CBV       -17.3371  -13.9505   18.4198 C.3         1 SU3      -0.0072
     47 CBW       -18.1457  -12.9486   17.5241 C.3         1 SU3       0.0824
     48 CBX       -18.3033  -14.4693   19.5374 C.3         1 SU3      -0.0574
     49 CBY       -16.1524  -13.1849   19.0940 C.3         1 SU3      -0.0574
     50 CBZ       -16.3475   -8.5816   13.5172 C.3         1 SU3      -0.0558
     51 CCA       -17.3892   -9.3250   11.3217 C.3         1 SU3      -0.0558
     52 CD1       -16.3649  -13.4502   11.1416 C.3         1 SU3       0.0677
     53 OD2       -15.1330  -15.5175   11.4397 O.3         1 SU3      -0.2338
     54 H1        -13.3647  -12.9620   11.4227 H           1 SU3       0.0803
     55 H2        -13.5595  -14.4873    9.6465 H           1 SU3       0.0342
     56 H3        -14.7692  -13.5211    8.7782 H           1 SU3       0.0342
     57 H4        -16.2408  -15.1083    9.7276 H           1 SU3       0.0673
     58 H5        -17.6006  -11.7500   12.6290 H           1 SU3       0.0805
     59 H6        -16.0051  -11.0163   14.9668 H           1 SU3       0.1899
     60 H7         -9.9287   -8.7741    6.9890 H           1 SU3       0.0265
     61 H8         -9.3992   -8.7544    8.6765 H           1 SU3       0.0265
     62 H9         -7.5547   -9.3126    7.0821 H           1 SU3       0.0230
     63 H10        -8.4390  -10.7627    6.5736 H           1 SU3       0.0230
     64 H11        -7.8443  -10.6228    8.2467 H           1 SU3       0.0230
     65 H12       -19.1003   -8.4509   13.2842 H           1 SU3       0.0237
     66 H13       -18.7053   -9.6167   14.5459 H           1 SU3       0.0237
     67 H14       -19.4271  -10.1658   13.0285 H           1 SU3       0.0237
     68 H15       -11.8057  -11.7806   10.2804 H           1 SU3       0.1839
     69 H16       -10.3995  -11.5012    8.1934 H           1 SU3       0.0312
     70 H17       -12.2298   -9.3203    6.9847 H           1 SU3       0.0279
     71 H18       -12.5534  -11.1537    7.1910 H           1 SU3       0.0279
     72 H19       -13.2544  -19.1781   11.4795 H           1 SU3       0.0373
     73 H20       -14.7047  -16.1894   13.9458 H           1 SU3       0.0361
     74 H21       -12.3195  -20.9365   13.5115 H           1 SU3       0.0557
     75 H22       -12.1309  -21.1794   15.9312 H           1 SU3       0.0599
     76 H23       -12.9476  -19.4483   17.3991 H           1 SU3       0.0557
     77 H24       -14.1698  -16.1253   16.2775 H           1 SU3       0.0426
     78 H25       -13.4555  -16.9784   17.6280 H           1 SU3       0.0426
     79 H26       -11.2973   -9.4885   11.4182 H           1 SU3       0.2148
     80 H27        -9.2694   -6.7443   11.0951 H           1 SU3       0.0559
     81 H28       -10.9231   -4.4178   12.4074 H           1 SU3       0.0285
     82 H29        -9.2548   -4.3150   11.5412 H           1 SU3       0.0285
     83 H30        -8.3146   -5.8259   13.2073 H           1 SU3       0.0285
     84 H31        -9.9900   -5.9416   14.0533 H           1 SU3       0.0285
     85 H32       -15.4950  -18.3701   17.8813 H           1 SU3       0.0287
     86 H33       -16.2412  -17.6035   16.4800 H           1 SU3       0.0287
     87 H34       -15.4002  -16.0191   18.9584 H           1 SU3       0.0267
     88 H35       -16.9534  -16.8414   18.8450 H           1 SU3       0.0267
     89 H36       -17.6308  -15.5175   16.9219 H           1 SU3       0.0271
     90 H37       -16.0665  -14.7300   16.8248 H           1 SU3       0.0271
     91 H38       -18.9965  -13.4633   17.0691 H           1 SU3       0.0617
     92 H39       -18.5550  -12.1488   18.1468 H           1 SU3       0.0617
     93 H40       -17.7729  -15.0851   20.2656 H           1 SU3       0.0236
     94 H41       -19.1077  -15.0668   19.1029 H           1 SU3       0.0236
     95 H42       -18.7543  -13.6373   20.0839 H           1 SU3       0.0236
     96 H43       -15.4257  -12.8519   18.3503 H           1 SU3       0.0236
     97 H44       -15.6350  -13.8249   19.8072 H           1 SU3       0.0236
     98 H45       -16.5132  -12.3068   19.6343 H           1 SU3       0.0236
     99 H46       -15.3637   -8.5656   13.0484 H           1 SU3       0.0237
    100 H47       -16.2177   -8.7849   14.5820 H           1 SU3       0.0237
    101 H48       -16.7668   -7.5773   13.4193 H           1 SU3       0.0237
    102 H49       -18.0362  -10.0465   10.8173 H           1 SU3       0.0237
    103 H50       -16.4061   -9.3624   10.8506 H           1 SU3       0.0237
    104 H51       -17.7980   -8.3258   11.1531 H           1 SU3       0.0237
    105 H52       -17.0959  -13.0040   10.4611 H           1 SU3       0.0553
    106 H53       -16.8816  -13.8478   12.0200 H           1 SU3       0.0553
@<TRIPOS>BOND
     1     1     3   2
     2     1     4   1
     3    21     1  am
     4     4     2   1
     5     2     7  am
     6     2    52   1
     7     4     5   1
     8     5     6   1
     9     6    52   1
    10     6    53   1
    11     7     8   2
    12     7     9   1
    13     9    10   1
    14     9    13   1
    15    10    11  am
    16    11    12   1
    17    11    14   2
    18    12    47   1
    19    13    20   1
    20    13    50   1
    21    13    51   1
    22    15    16   2
    23    15    17  am
    24    53    15   1
    25    17    26   1
    26    17    29   1
    27    18    19   1
    28    24    18   1
    29    22    21   1
    30    22    23   1
    31    22    24   1
    32    22    25   1
    33    23    35  am
    34    23    36   2
    35    24    25   1
    36    26    27   2
    37    27    28  ar
    38    27    30  ar
    39    28    29   2
    40    28    33  ar
    41    30    31  ar
    42    31    32  ar
    43    32    33  ar
    44    33    34   1
    45    34    43   1
    46    35    37  am
    47    37    38   1
    48    37    39   2
    49    37    40   2
    50    38    41   1
    51    38    42   1
    52    41    42   1
    53    43    44   1
    54    44    45   1
    55    45    46   1
    56    46    47   1
    57    46    48   1
    58    46    49   1
    59     4    54   1
    60     5    55   1
    61     5    56   1
    62     6    57   1
    63     9    58   1
    64    10    59   1
    65    18    60   1
    66    18    61   1
    67    19    62   1
    68    19    63   1
    69    19    64   1
    70    20    65   1
    71    20    66   1
    72    20    67   1
    73    21    68   1
    74    24    69   1
    75    25    70   1
    76    25    71   1
    77    26    72   1
    78    29    73   1
    79    30    74   1
    80    31    75   1
    81    32    76   1
    82    34    77   1
    83    34    78   1
    84    35    79   1
    85    38    80   1
    86    41    81   1
    87    41    82   1
    88    42    83   1
    89    42    84   1
    90    43    85   1
    91    43    86   1
    92    44    87   1
    93    44    88   1
    94    45    89   1
    95    45    90   1
    96    47    91   1
    97    47    92   1
    98    48    93   1
    99    48    94   1
   100    48    95   1
   101    49    96   1
   102    49    97   1
   103    49    98   1
   104    50    99   1
   105    50   100   1
   106    50   101   1
   107    51   102   1
   108    51   103   1
   109    51   104   1
   110    52   105   1
   111    52   106   1
@<TRIPOS>SUBSTRUCTURE
     1  SU3      1

