@<TRIPOS>MOLECULE
3su3_ligand_075
   106   111
SMALL
GAST_HUCK
****
This file was generated by PARSER (from files_GN.cpp)

@<TRIPOS>ATOM
      1 C         -12.8033  -13.4525   13.8030 C.2         1 SU3       0.2013
      2 N         -13.0065  -15.5546   12.5741 N.am        1 SU3      -0.2469
      3 O         -12.2134  -13.2200   14.8618 O.2         1 SU3      -0.3947
      4 CA        -12.2046  -14.3790   12.8555 C.3         1 SU3       0.1363
      5 CB        -11.9637  -13.7018   11.4791 C.3         1 SU3       0.0206
      6 CG        -12.1686  -14.8398   10.4698 C.3         1 SU3       0.1158
      7 CAF       -13.3718  -16.4629   13.4992 C.2         1 SU3       0.2070
      8 OAG       -12.8908  -16.3570   14.6234 O.2         1 SU3      -0.3942
      9 CAH       -14.3038  -17.5861   13.2945 C.3         1 SU3       0.1378
     10 NAI       -13.5518  -18.8101   13.3696 N.am        1 SU3      -0.2407
     11 CAJ       -13.5840  -19.8327   12.4881 C.2         1 SU3       0.3218
     12 OAK       -13.0551  -21.0123   12.9018 O.3         1 SU3      -0.2633
     13 CAL       -15.5639  -17.6489   14.2617 C.3         1 SU3       0.0025
     14 OAM       -14.2318  -19.7392   11.3030 O.2         1 SU3      -0.3774
     15 CAO        -9.8410  -15.2821    9.6020 C.2         1 SU3       0.4317
     16 OAP        -9.7496  -14.0685    9.0039 O.2         1 SU3      -0.3166
     17 NAQ        -8.8208  -16.1747    9.5109 N.am        1 SU3      -0.2080
     18 CAR       -17.1650  -11.1577   14.9784 C.3         1 SU3      -0.0516
     19 CAS       -18.2591  -11.6924   15.9275 C.3         1 SU3      -0.0651
     20 CAT       -16.4398  -16.3612   14.1104 C.3         1 SU3      -0.0558
     21 NAV       -13.9288  -12.8001   13.5181 N.am        1 SU3      -0.2737
     22 CAX       -14.5826  -11.8679   14.3811 C.3         1 SU3       0.1374
     23 CAY       -14.2860  -10.4605   14.1837 C.2         1 SU3       0.2444
     24 CAZ       -16.0650  -12.2215   14.6965 C.3         1 SU3      -0.0066
     25 CBA       -14.9815  -12.3952   15.7768 C.3         1 SU3      -0.0152
     26 CBB        -7.6553  -15.9969    8.8523 C.2         1 SU3       0.0383
     27 CBC        -6.8863  -17.1457    8.9751 C.ar        1 SU3      -0.0374
     28 CBD        -7.6102  -18.0531    9.7496 C.ar        1 SU3      -0.0293
     29 CBE        -8.8102  -17.4141   10.0612 C.2         1 SU3       0.0366
     30 CBF        -5.6200  -17.4719    8.4648 C.ar        1 SU3      -0.0689
     31 CBG        -5.0881  -18.7457    8.7480 C.ar        1 SU3      -0.0688
     32 CBH        -5.8182  -19.6657    9.5328 C.ar        1 SU3      -0.0606
     33 CBI        -7.0941  -19.3348   10.0551 C.ar        1 SU3      -0.0432
     34 CBJ        -7.8401  -20.3213   10.8823 C.3         1 SU3      -0.0194
     35 NBK       -13.7471   -9.7333   15.1558 N.am        1 SU3      -0.1552
     36 OBL       -14.5642   -9.9767   13.0914 O.2         1 SU3      -0.3404
     37 SBM       -13.5359   -8.0639   15.0876 S.o2        1 SU3       0.0645
     38 CBN       -12.2457   -7.5594   16.2558 C.3         1 SU3       0.1004
     39 OBO       -13.0336   -7.6514   13.6335 O.2         1 SU3      -0.1503
     40 OBP       -14.9202   -7.3647   15.4472 O.2         1 SU3      -0.1503
     41 CBQ       -12.0330   -6.0519   16.4499 C.3         1 SU3      -0.0268
     42 CBR       -12.6545   -6.8889   17.5764 C.3         1 SU3      -0.0268
     43 CBS        -8.4945  -21.4294   10.0123 C.3         1 SU3      -0.0433
     44 CBT        -9.3333  -22.4598   10.8189 C.3         1 SU3      -0.0507
     45 CBU       -10.7472  -21.9500   11.2331 C.3         1 SU3      -0.0453
     46 CBV       -11.6373  -22.9116   12.1047 C.3         1 SU3      -0.0072
     47 CBW       -13.0669  -22.2871   12.2404 C.3         1 SU3       0.0824
     48 CBX       -11.7919  -24.3170   11.4306 C.3         1 SU3      -0.0574
     49 CBY       -11.0335  -23.1031   13.5349 C.3         1 SU3      -0.0574
     50 CBZ       -16.4617  -18.8754   13.8729 C.3         1 SU3      -0.0558
     51 CCA       -15.1876  -17.8141   15.7744 C.3         1 SU3      -0.0558
     52 CD1       -13.2322  -15.7101   11.1631 C.3         1 SU3       0.0677
     53 OD2       -10.9766  -15.6176   10.2746 O.3         1 SU3      -0.2338
     54 H1        -11.2328  -14.7295   13.2316 H           1 SU3       0.0803
     55 H2        -10.9614  -13.2698   11.4222 H           1 SU3       0.0342
     56 H3        -12.6950  -12.9085   11.2751 H           1 SU3       0.0342
     57 H4        -12.5336  -14.4688    9.5077 H           1 SU3       0.0673
     58 H5        -14.7243  -17.4884   12.2937 H           1 SU3       0.0805
     59 H6        -13.0763  -18.9759   14.1987 H           1 SU3       0.1899
     60 H7        -16.7392  -10.2467   15.4069 H           1 SU3       0.0265
     61 H8        -17.6277  -10.8929   14.0260 H           1 SU3       0.0265
     62 H9        -19.0317  -10.9314   16.0697 H           1 SU3       0.0230
     63 H10       -17.8295  -11.9341   16.9024 H           1 SU3       0.0230
     64 H11       -18.7246  -12.5917   15.5094 H           1 SU3       0.0230
     65 H12       -17.3642  -16.4375   14.6938 H           1 SU3       0.0237
     66 H13       -16.7122  -16.2020   13.0642 H           1 SU3       0.0237
     67 H14       -15.8897  -15.4840   14.4585 H           1 SU3       0.0237
     68 H15       -14.3344  -12.9698   12.6484 H           1 SU3       0.1839
     69 H16       -16.4160  -13.1659   14.2683 H           1 SU3       0.0312
     70 H17       -14.9469  -11.6649   16.5923 H           1 SU3       0.0279
     71 H18       -14.6906  -13.4271   15.9902 H           1 SU3       0.0279
     72 H19        -7.3761  -15.1619    8.3300 H           1 SU3       0.0373
     73 H20        -9.5688  -17.8256   10.6108 H           1 SU3       0.0361
     74 H21        -5.0971  -16.8036    7.8947 H           1 SU3       0.0557
     75 H22        -4.1694  -19.0052    8.3821 H           1 SU3       0.0599
     76 H23        -5.4071  -20.5827    9.7225 H           1 SU3       0.0557
     77 H24        -8.6098  -19.8193   11.4685 H           1 SU3       0.0426
     78 H25        -7.1535  -20.7800   11.5990 H           1 SU3       0.0426
     79 H26       -13.5426  -10.1609   16.0078 H           1 SU3       0.2148
     80 H27       -11.3260   -8.1456   16.2905 H           1 SU3       0.0559
     81 H28       -12.7210   -5.3809   15.9321 H           1 SU3       0.0285
     82 H29       -11.0025   -5.7289   16.6165 H           1 SU3       0.0285
     83 H30       -12.0022   -7.0574   18.4359 H           1 SU3       0.0285
     84 H31       -13.7151   -6.6999   17.7491 H           1 SU3       0.0285
     85 H32        -7.6989  -21.9744    9.4949 H           1 SU3       0.0287
     86 H33        -9.1272  -20.9703    9.2460 H           1 SU3       0.0287
     87 H34        -8.7672  -22.7643   11.7020 H           1 SU3       0.0267
     88 H35        -9.4577  -23.3416   10.1848 H           1 SU3       0.0267
     89 H36       -11.2865  -21.7157   10.3099 H           1 SU3       0.0271
     90 H37       -10.6264  -21.0091   11.7755 H           1 SU3       0.0271
     91 H38       -13.5348  -22.2057   11.2562 H           1 SU3       0.0617
     92 H39       -13.7017  -22.9420   12.8420 H           1 SU3       0.0617
     93 H40       -10.8392  -24.8499   11.4075 H           1 SU3       0.0236
     94 H41       -12.1545  -24.2140   10.4045 H           1 SU3       0.0236
     95 H42       -12.5018  -24.9374   11.9839 H           1 SU3       0.0236
     96 H43       -10.8846  -22.1393   14.0287 H           1 SU3       0.0236
     97 H44       -10.0714  -23.6152   13.4899 H           1 SU3       0.0236
     98 H45       -11.7007  -23.7041   14.1586 H           1 SU3       0.0236
     99 H46       -15.9199  -19.8158   14.0096 H           1 SU3       0.0237
    100 H47       -16.7756  -18.8081   12.8269 H           1 SU3       0.0237
    101 H48       -17.3640  -18.9177   14.4917 H           1 SU3       0.0237
    102 H49       -14.6262  -16.9589   16.1473 H           1 SU3       0.0237
    103 H50       -14.5869  -18.7117   15.9368 H           1 SU3       0.0237
    104 H51       -16.0844  -17.9021   16.3927 H           1 SU3       0.0237
    105 H52       -14.2387  -15.3658   10.9094 H           1 SU3       0.0553
    106 H53       -13.1125  -16.7449   10.8254 H           1 SU3       0.0553
@<TRIPOS>BOND
     1     1     3   2
     2     1     4   1
     3    21     1  am
     4     4     2   1
     5     2     7  am
     6     2    52   1
     7     4     5   1
     8     5     6   1
     9     6    52   1
    10     6    53   1
    11     7     8   2
    12     7     9   1
    13     9    10   1
    14     9    13   1
    15    10    11  am
    16    11    12   1
    17    11    14   2
    18    12    47   1
    19    13    20   1
    20    13    50   1
    21    13    51   1
    22    15    16   2
    23    15    17  am
    24    53    15   1
    25    17    26   1
    26    17    29   1
    27    18    19   1
    28    24    18   1
    29    22    21   1
    30    22    23   1
    31    22    24   1
    32    22    25   1
    33    23    35  am
    34    23    36   2
    35    24    25   1
    36    26    27   2
    37    27    28  ar
    38    27    30  ar
    39    28    29   2
    40    28    33  ar
    41    30    31  ar
    42    31    32  ar
    43    32    33  ar
    44    33    34   1
    45    34    43   1
    46    35    37  am
    47    37    38   1
    48    37    39   2
    49    37    40   2
    50    38    41   1
    51    38    42   1
    52    41    42   1
    53    43    44   1
    54    44    45   1
    55    45    46   1
    56    46    47   1
    57    46    48   1
    58    46    49   1
    59     4    54   1
    60     5    55   1
    61     5    56   1
    62     6    57   1
    63     9    58   1
    64    10    59   1
    65    18    60   1
    66    18    61   1
    67    19    62   1
    68    19    63   1
    69    19    64   1
    70    20    65   1
    71    20    66   1
    72    20    67   1
    73    21    68   1
    74    24    69   1
    75    25    70   1
    76    25    71   1
    77    26    72   1
    78    29    73   1
    79    30    74   1
    80    31    75   1
    81    32    76   1
    82    34    77   1
    83    34    78   1
    84    35    79   1
    85    38    80   1
    86    41    81   1
    87    41    82   1
    88    42    83   1
    89    42    84   1
    90    43    85   1
    91    43    86   1
    92    44    87   1
    93    44    88   1
    94    45    89   1
    95    45    90   1
    96    47    91   1
    97    47    92   1
    98    48    93   1
    99    48    94   1
   100    48    95   1
   101    49    96   1
   102    49    97   1
   103    49    98   1
   104    50    99   1
   105    50   100   1
   106    50   101   1
   107    51   102   1
   108    51   103   1
   109    51   104   1
   110    52   105   1
   111    52   106   1
@<TRIPOS>SUBSTRUCTURE
     1  SU3      1

