@<TRIPOS>MOLECULE
3su3_ligand_043
   106   111
SMALL
GAST_HUCK
****
This file was generated by PARSER (from files_GN.cpp)

@<TRIPOS>ATOM
      1 C         -10.7773   -5.5832   11.4098 C.2         1 SU3       0.2013
      2 N         -13.2418   -5.3568   11.3831 N.am        1 SU3      -0.2469
      3 O         -10.7836   -4.9959   12.4967 O.2         1 SU3      -0.3947
      4 CA        -12.0454   -5.8714   10.7425 C.3         1 SU3       0.1363
      5 CB        -12.0931   -5.2888    9.2967 C.3         1 SU3       0.0206
      6 CG        -13.5418   -4.8421    9.0953 C.3         1 SU3       0.1158
      7 CAF       -13.6369   -5.6842   12.6359 C.2         1 SU3       0.2070
      8 OAG       -13.0998   -6.6441   13.1655 O.2         1 SU3      -0.3942
      9 CAH       -14.6515   -4.9711   13.4278 C.3         1 SU3       0.1378
     10 NAI       -15.7718   -5.8635   13.5707 N.am        1 SU3      -0.2407
     11 CAJ       -17.0704   -5.5504   13.4153 C.2         1 SU3       0.3218
     12 OAK       -17.9766   -6.5025   13.7630 O.3         1 SU3      -0.2633
     13 CAL       -14.1720   -4.4168   14.8338 C.3         1 SU3       0.0025
     14 OAM       -17.4736   -4.3159   13.0630 O.2         1 SU3      -0.3774
     15 CAO       -14.4601   -6.4576    7.3857 C.2         1 SU3       0.4317
     16 OAP       -13.6379   -5.9879    6.4138 O.2         1 SU3      -0.3166
     17 NAQ       -15.3552   -7.4442    7.1184 N.am        1 SU3      -0.2080
     18 CAR        -7.0707   -6.1007   13.8212 C.3         1 SU3      -0.0516
     19 CAS        -7.9035   -5.8729   15.1022 C.3         1 SU3      -0.0651
     20 CAT       -12.6053   -4.2887   14.9160 C.3         1 SU3      -0.0558
     21 NAV        -9.6176   -5.9658   10.8670 N.am        1 SU3      -0.2737
     22 CAX        -8.3339   -5.6967   11.4366 C.3         1 SU3       0.1374
     23 CAY        -7.8800   -4.3185   11.3866 C.2         1 SU3       0.2444
     24 CAZ        -7.9610   -6.5813   12.6543 C.3         1 SU3      -0.0066
     25 CBA        -7.2657   -6.8031   11.3078 C.3         1 SU3      -0.0152
     26 CBB       -15.5252   -8.0648    5.9271 C.2         1 SU3       0.0383
     27 CBC       -16.5347   -9.0111    6.0514 C.ar        1 SU3      -0.0374
     28 CBD       -16.9952   -8.9621    7.3667 C.ar        1 SU3      -0.0293
     29 CBE       -16.2442   -7.9720    7.9988 C.2         1 SU3       0.0366
     30 CBF       -17.0813   -9.9004    5.1150 C.ar        1 SU3      -0.0689
     31 CBG       -18.1255  -10.7514    5.5321 C.ar        1 SU3      -0.0688
     32 CBH       -18.5981  -10.7032    6.8595 C.ar        1 SU3      -0.0606
     33 CBI       -18.0393   -9.8099    7.8114 C.ar        1 SU3      -0.0432
     34 CBJ       -18.5716   -9.7597    9.1987 C.3         1 SU3      -0.0194
     35 NBK        -6.9069   -3.9678   10.5616 N.am        1 SU3      -0.1552
     36 OBL        -8.5028   -3.5021   12.0505 O.2         1 SU3      -0.3404
     37 SBM        -6.3178   -2.4122   10.2825 S.o2        1 SU3       0.0645
     38 CBN        -6.8133   -1.1298   11.4650 C.3         1 SU3       0.1004
     39 OBO        -4.7343   -2.4741   10.1699 O.2         1 SU3      -0.1503
     40 OBP        -6.8698   -1.9520    8.8636 O.2         1 SU3      -0.1503
     41 CBQ        -5.8661   -0.8202   12.6329 C.3         1 SU3      -0.0268
     42 CBR        -6.0351    0.1941   11.4910 C.3         1 SU3      -0.0268
     43 CBS       -19.8587   -8.8960    9.2856 C.3         1 SU3      -0.0433
     44 CBT       -20.4338   -8.7646   10.7230 C.3         1 SU3      -0.0507
     45 CBU       -19.6868   -7.7310   11.6192 C.3         1 SU3      -0.0453
     46 CBV       -20.1285   -7.6235   13.1291 C.3         1 SU3      -0.0072
     47 CBW       -19.4075   -6.4008   13.7935 C.3         1 SU3       0.0824
     48 CBX       -21.6724   -7.3842   13.2527 C.3         1 SU3      -0.0574
     49 CBY       -19.7538   -8.9240   13.9147 C.3         1 SU3      -0.0574
     50 CBZ       -14.7541   -2.9696   15.0644 C.3         1 SU3      -0.0558
     51 CCA       -14.6324   -5.2999   16.0507 C.3         1 SU3      -0.0558
     52 CD1       -13.9644   -4.4565   10.5254 C.3         1 SU3       0.0677
     53 OD2       -14.4080   -5.8947    8.6274 O.3         1 SU3      -0.2338
     54 H1        -12.1520   -6.9533   10.6571 H           1 SU3       0.0803
     55 H2        -11.7914   -6.0209    8.5445 H           1 SU3       0.0342
     56 H3        -11.4517   -4.4121    9.1897 H           1 SU3       0.0342
     57 H4        -13.6274   -3.9748    8.4244 H           1 SU3       0.0673
     58 H5        -14.9622   -4.0927   12.8541 H           1 SU3       0.0805
     59 H6        -15.5782   -6.7614   13.8732 H           1 SU3       0.1899
     60 H7         -6.3211   -6.8692   14.0246 H           1 SU3       0.0265
     61 H8         -6.5480   -5.1723   13.5789 H           1 SU3       0.0265
     62 H9         -7.2615   -5.5690   15.9306 H           1 SU3       0.0230
     63 H10        -8.4290   -6.7848   15.3930 H           1 SU3       0.0230
     64 H11        -8.6454   -5.0904   14.9483 H           1 SU3       0.0230
     65 H12       -12.2926   -3.6780   15.7678 H           1 SU3       0.0237
     66 H13       -12.2234   -3.8241   14.0031 H           1 SU3       0.0237
     67 H14       -12.1456   -5.2737   15.0281 H           1 SU3       0.0237
     68 H15        -9.6310   -6.4044    9.9877 H           1 SU3       0.1839
     69 H16        -8.6587   -7.3905   12.8957 H           1 SU3       0.0312
     70 H17        -6.2191   -6.4828   11.2290 H           1 SU3       0.0279
     71 H18        -7.5841   -7.7082   10.7838 H           1 SU3       0.0279
     72 H19       -15.0028   -7.8767    5.0679 H           1 SU3       0.0373
     73 H20       -16.3488   -7.6849    8.9762 H           1 SU3       0.0361
     74 H21       -16.7392   -9.9274    4.1552 H           1 SU3       0.0557
     75 H22       -18.5419  -11.4059    4.8644 H           1 SU3       0.0599
     76 H23       -19.3606  -11.3304    7.1327 H           1 SU3       0.0557
     77 H24       -17.8123   -9.3651    9.8737 H           1 SU3       0.0426
     78 H25       -18.7909  -10.7762    9.5367 H           1 SU3       0.0426
     79 H26        -6.4874   -4.6763   10.0448 H           1 SU3       0.2148
     80 H27        -7.8727   -1.0306   11.6962 H           1 SU3       0.0559
     81 H28        -4.8977   -1.3125   12.6491 H           1 SU3       0.0285
     82 H29        -6.3350   -0.5291   13.5730 H           1 SU3       0.0285
     83 H30        -6.6081    1.0847   11.7457 H           1 SU3       0.0285
     84 H31        -5.1794    0.2823   10.8220 H           1 SU3       0.0285
     85 H32       -20.6235   -9.3602    8.6582 H           1 SU3       0.0287
     86 H33       -19.6626   -7.8987    8.8835 H           1 SU3       0.0287
     87 H34       -20.4315   -9.7480   11.1959 H           1 SU3       0.0267
     88 H35       -21.4752   -8.4466   10.6303 H           1 SU3       0.0267
     89 H36       -19.8089   -6.7482   11.1512 H           1 SU3       0.0271
     90 H37       -18.6173   -7.9593   11.5955 H           1 SU3       0.0271
     91 H38       -19.7314   -5.4762   13.3097 H           1 SU3       0.0617
     92 H39       -19.6972   -6.3361   14.8471 H           1 SU3       0.0617
     93 H40       -22.2392   -8.2488   12.8999 H           1 SU3       0.0236
     94 H41       -21.9740   -6.5119   12.6663 H           1 SU3       0.0236
     95 H42       -21.9553   -7.2082   14.2943 H           1 SU3       0.0236
     96 H43       -18.6869   -9.1409   13.8202 H           1 SU3       0.0236
     97 H44       -20.3097   -9.7880   13.5453 H           1 SU3       0.0236
     98 H45       -19.9850   -8.8138   14.9772 H           1 SU3       0.0236
     99 H46       -15.8520   -2.9664   15.0091 H           1 SU3       0.0237
    100 H47       -14.3681   -2.2782   14.3017 H           1 SU3       0.0237
    101 H48       -14.4697   -2.5763   16.0471 H           1 SU3       0.0237
    102 H49       -14.2929   -6.3339   15.9323 H           1 SU3       0.0237
    103 H50       -15.7241   -5.2995   16.1274 H           1 SU3       0.0237
    104 H51       -14.2305   -4.9164   16.9945 H           1 SU3       0.0237
    105 H52       -13.6848   -3.4131   10.7393 H           1 SU3       0.0553
    106 H53       -15.0543   -4.5583   10.6191 H           1 SU3       0.0553
@<TRIPOS>BOND
     1     1     3   2
     2     1     4   1
     3    21     1  am
     4     4     2   1
     5     2     7  am
     6     2    52   1
     7     4     5   1
     8     5     6   1
     9     6    52   1
    10     6    53   1
    11     7     8   2
    12     7     9   1
    13     9    10   1
    14     9    13   1
    15    10    11  am
    16    11    12   1
    17    11    14   2
    18    12    47   1
    19    13    20   1
    20    13    50   1
    21    13    51   1
    22    15    16   2
    23    15    17  am
    24    53    15   1
    25    17    26   1
    26    17    29   1
    27    18    19   1
    28    24    18   1
    29    22    21   1
    30    22    23   1
    31    22    24   1
    32    22    25   1
    33    23    35  am
    34    23    36   2
    35    24    25   1
    36    26    27   2
    37    27    28  ar
    38    27    30  ar
    39    28    29   2
    40    28    33  ar
    41    30    31  ar
    42    31    32  ar
    43    32    33  ar
    44    33    34   1
    45    34    43   1
    46    35    37  am
    47    37    38   1
    48    37    39   2
    49    37    40   2
    50    38    41   1
    51    38    42   1
    52    41    42   1
    53    43    44   1
    54    44    45   1
    55    45    46   1
    56    46    47   1
    57    46    48   1
    58    46    49   1
    59     4    54   1
    60     5    55   1
    61     5    56   1
    62     6    57   1
    63     9    58   1
    64    10    59   1
    65    18    60   1
    66    18    61   1
    67    19    62   1
    68    19    63   1
    69    19    64   1
    70    20    65   1
    71    20    66   1
    72    20    67   1
    73    21    68   1
    74    24    69   1
    75    25    70   1
    76    25    71   1
    77    26    72   1
    78    29    73   1
    79    30    74   1
    80    31    75   1
    81    32    76   1
    82    34    77   1
    83    34    78   1
    84    35    79   1
    85    38    80   1
    86    41    81   1
    87    41    82   1
    88    42    83   1
    89    42    84   1
    90    43    85   1
    91    43    86   1
    92    44    87   1
    93    44    88   1
    94    45    89   1
    95    45    90   1
    96    47    91   1
    97    47    92   1
    98    48    93   1
    99    48    94   1
   100    48    95   1
   101    49    96   1
   102    49    97   1
   103    49    98   1
   104    50    99   1
   105    50   100   1
   106    50   101   1
   107    51   102   1
   108    51   103   1
   109    51   104   1
   110    52   105   1
   111    52   106   1
@<TRIPOS>SUBSTRUCTURE
     1  SU3      1

