@<TRIPOS>MOLECULE
3su3_ligand_068
   106   111
SMALL
GAST_HUCK
****
This file was generated by PARSER (from files_GN.cpp)

@<TRIPOS>ATOM
      1 C          -7.1223   -4.0317    9.5837 C.2         1 SU3       0.2013
      2 N          -8.7010   -5.8901   10.0099 N.am        1 SU3      -0.2469
      3 O          -6.6980   -4.6505    8.6086 O.2         1 SU3      -0.3947
      4 CA         -8.1162   -4.6489   10.4762 C.3         1 SU3       0.1363
      5 CB         -7.5230   -4.9806   11.8741 C.3         1 SU3       0.0206
      6 CG         -8.3023   -6.2236   12.3306 C.3         1 SU3       0.1158
      7 CAF        -9.3651   -6.0188    8.8407 C.2         1 SU3       0.2070
      8 OAG        -9.6567   -4.9980    8.2233 O.2         1 SU3      -0.3942
      9 CAH        -9.7641   -7.2867    8.2184 C.3         1 SU3       0.1378
     10 NAI       -11.1998   -7.3364    8.2670 N.am        1 SU3      -0.2407
     11 CAJ       -11.9758   -8.3308    8.7378 C.2         1 SU3       0.3218
     12 OAK       -13.3019   -8.2103    8.4806 O.3         1 SU3      -0.2633
     13 CAL        -9.2374   -7.5421    6.7388 C.3         1 SU3       0.0025
     14 OAM       -11.4650   -9.4317    9.3323 O.2         1 SU3      -0.3774
     15 CAO        -9.8010   -5.4456   14.2134 C.2         1 SU3       0.4317
     16 OAP        -8.7684   -5.2800   15.0799 O.2         1 SU3      -0.3166
     17 NAQ       -11.0685   -5.1182   14.5815 N.am        1 SU3      -0.2080
     18 CAR        -3.7951   -0.2214    9.1954 C.3         1 SU3      -0.0516
     19 CAS        -3.7931    0.8101   10.3451 C.3         1 SU3      -0.0651
     20 CAT        -7.8422   -6.8727    6.4572 C.3         1 SU3      -0.0558
     21 NAV        -6.6767   -2.8025    9.8166 N.am        1 SU3      -0.2737
     22 CAX        -5.8566   -2.0343    8.9231 C.3         1 SU3       0.1374
     23 CAY        -6.5497   -1.2459    7.9269 C.2         1 SU3       0.2444
     24 CAZ        -4.5509   -1.5223    9.5809 C.3         1 SU3      -0.0066
     25 CBA        -4.4924   -2.6158    8.4993 C.3         1 SU3      -0.0152
     26 CBB       -11.4385   -4.5756   15.7639 C.2         1 SU3       0.0383
     27 CBC       -12.8019   -4.3188   15.7323 C.ar        1 SU3      -0.0374
     28 CBD       -13.2782   -4.7439   14.4951 C.ar        1 SU3      -0.0293
     29 CBE       -12.1726   -5.2401   13.8081 C.2         1 SU3       0.0366
     30 CBF       -13.6586   -3.7528   16.6895 C.ar        1 SU3      -0.0689
     31 CBG       -15.0294   -3.6313   16.3804 C.ar        1 SU3      -0.0688
     32 CBH       -15.5202   -4.0734   15.1303 C.ar        1 SU3      -0.0606
     33 CBI       -14.6498   -4.6340   14.1594 C.ar        1 SU3      -0.0432
     34 CBJ       -15.1946   -5.1364   12.8729 C.3         1 SU3      -0.0194
     35 NBK        -7.1090   -0.1040    8.2832 N.am        1 SU3      -0.1552
     36 OBL        -6.6802   -1.7070    6.7974 O.2         1 SU3      -0.3404
     37 SBM        -8.0051    0.8892    7.2558 S.o2        1 SU3       0.0645
     38 CBN        -9.7135    0.3498    7.0095 C.3         1 SU3       0.1004
     39 OBO        -8.0576    2.3013    7.9879 O.2         1 SU3      -0.1503
     40 OBP        -7.2043    1.1796    5.9079 O.2         1 SU3      -0.1503
     41 CBQ       -10.3693    0.4979    5.6250 C.3         1 SU3      -0.0268
     42 CBR        -9.9276   -0.8868    6.1195 C.3         1 SU3      -0.0268
     43 CBS       -15.7817   -6.5656   13.0382 C.3         1 SU3      -0.0433
     44 CBT       -16.2960   -7.2031   11.7180 C.3         1 SU3      -0.0507
     45 CBU       -15.1750   -7.8082   10.8220 C.3         1 SU3      -0.0453
     46 CBV       -15.5987   -8.3972    9.4261 C.3         1 SU3      -0.0072
     47 CBW       -14.3717   -9.1170    8.7736 C.3         1 SU3       0.0824
     48 CBX       -16.7431   -9.4555    9.5799 C.3         1 SU3      -0.0574
     49 CBY       -16.0937   -7.2625    8.4687 C.3         1 SU3      -0.0574
     50 CBZ        -9.0442   -9.0871    6.5108 C.3         1 SU3      -0.0558
     51 CCA       -10.2175   -7.0290    5.6237 C.3         1 SU3      -0.0558
     52 CD1        -8.5839   -6.9326   10.9910 C.3         1 SU3       0.0677
     53 OD2        -9.5612   -5.8944   12.9489 O.3         1 SU3      -0.2338
     54 H1         -8.9427   -3.9412   10.6175 H           1 SU3       0.0803
     55 H2         -7.6412   -4.1493   12.5694 H           1 SU3       0.0342
     56 H3         -6.4623   -5.2345   11.8007 H           1 SU3       0.0342
     57 H4         -7.7080   -6.8645   12.9934 H           1 SU3       0.0673
     58 H5         -9.3626   -8.0941    8.8246 H           1 SU3       0.0805
     59 H6        -11.6631   -6.6020    7.8337 H           1 SU3       0.1899
     60 H7         -2.7539   -0.4713    8.9674 H           1 SU3       0.0265
     61 H8         -4.2330    0.2445    8.3069 H           1 SU3       0.0265
     62 H9         -3.2446    1.7068   10.0364 H           1 SU3       0.0230
     63 H10        -3.3041    0.3981   11.2355 H           1 SU3       0.0230
     64 H11        -4.8165    1.1001   10.6037 H           1 SU3       0.0230
     65 H12        -7.4298   -7.1768    5.4884 H           1 SU3       0.0237
     66 H13        -7.1217   -7.1452    7.2299 H           1 SU3       0.0237
     67 H14        -7.9332   -5.7832    6.4423 H           1 SU3       0.0237
     68 H15        -6.9925   -2.3530   10.6189 H           1 SU3       0.1839
     69 H16        -4.3227   -1.9347   10.5664 H           1 SU3       0.0312
     70 H17        -4.1187   -2.3242    7.5137 H           1 SU3       0.0279
     71 H18        -4.3301   -3.6422    8.8149 H           1 SU3       0.0279
     72 H19       -10.8290   -4.3601   16.5526 H           1 SU3       0.0373
     73 H20       -12.1954   -5.6283   12.8641 H           1 SU3       0.0361
     74 H21       -13.2993   -3.4375   17.5934 H           1 SU3       0.0557
     75 H22       -15.6718   -3.2241   17.0652 H           1 SU3       0.0599
     76 H23       -16.5220   -3.9862   14.9384 H           1 SU3       0.0557
     77 H24       -14.4164   -5.1422   12.1094 H           1 SU3       0.0426
     78 H25       -15.9766   -4.4598   12.5161 H           1 SU3       0.0426
     79 H26        -7.0109    0.1797    9.2077 H           1 SU3       0.2148
     80 H27       -10.3930    0.4044    7.8651 H           1 SU3       0.0559
     81 H28        -9.7599    0.9247    4.8294 H           1 SU3       0.0285
     82 H29       -11.4450    0.6688    5.6288 H           1 SU3       0.0285
     83 H30       -10.7385   -1.5501    6.4138 H           1 SU3       0.0285
     84 H31        -9.0624   -1.2976    5.6006 H           1 SU3       0.0285
     85 H32       -16.6223   -6.5094   13.7369 H           1 SU3       0.0287
     86 H33       -15.0308   -7.2250   13.4854 H           1 SU3       0.0287
     87 H34       -16.8655   -6.4545   11.1639 H           1 SU3       0.0267
     88 H35       -16.9863   -8.0047   11.9932 H           1 SU3       0.0267
     89 H36       -14.6946   -8.6020   11.3992 H           1 SU3       0.0271
     90 H37       -14.4175   -7.0422   10.6515 H           1 SU3       0.0271
     91 H38       -14.0249   -9.9275    9.4163 H           1 SU3       0.0617
     92 H39       -14.6668   -9.5637    7.8219 H           1 SU3       0.0617
     93 H40       -17.6716   -8.9945    9.9284 H           1 SU3       0.0236
     94 H41       -16.4570  -10.2313   10.2958 H           1 SU3       0.0236
     95 H42       -16.9618   -9.9414    8.6231 H           1 SU3       0.0236
     96 H43       -15.3404   -6.4770    8.3740 H           1 SU3       0.0236
     97 H44       -17.0139   -6.8013    8.8339 H           1 SU3       0.0236
     98 H45       -16.2979   -7.6552    7.4685 H           1 SU3       0.0236
     99 H46        -9.9801   -9.6214    6.6897 H           1 SU3       0.0237
    100 H47        -8.2886   -9.4865    7.1960 H           1 SU3       0.0237
    101 H48        -8.7190   -9.3144    5.4901 H           1 SU3       0.0237
    102 H49       -10.4194   -5.9639    5.7500 H           1 SU3       0.0237
    103 H50       -11.1705   -7.5628    5.6660 H           1 SU3       0.0237
    104 H51        -9.8065   -7.1799    4.6201 H           1 SU3       0.0237
    105 H52        -7.7520   -7.5927   10.7375 H           1 SU3       0.0553
    106 H53        -9.4924   -7.5361   11.0871 H           1 SU3       0.0553
@<TRIPOS>BOND
     1     1     3   2
     2     1     4   1
     3    21     1  am
     4     4     2   1
     5     2     7  am
     6     2    52   1
     7     4     5   1
     8     5     6   1
     9     6    52   1
    10     6    53   1
    11     7     8   2
    12     7     9   1
    13     9    10   1
    14     9    13   1
    15    10    11  am
    16    11    12   1
    17    11    14   2
    18    12    47   1
    19    13    20   1
    20    13    50   1
    21    13    51   1
    22    15    16   2
    23    15    17  am
    24    53    15   1
    25    17    26   1
    26    17    29   1
    27    18    19   1
    28    24    18   1
    29    22    21   1
    30    22    23   1
    31    22    24   1
    32    22    25   1
    33    23    35  am
    34    23    36   2
    35    24    25   1
    36    26    27   2
    37    27    28  ar
    38    27    30  ar
    39    28    29   2
    40    28    33  ar
    41    30    31  ar
    42    31    32  ar
    43    32    33  ar
    44    33    34   1
    45    34    43   1
    46    35    37  am
    47    37    38   1
    48    37    39   2
    49    37    40   2
    50    38    41   1
    51    38    42   1
    52    41    42   1
    53    43    44   1
    54    44    45   1
    55    45    46   1
    56    46    47   1
    57    46    48   1
    58    46    49   1
    59     4    54   1
    60     5    55   1
    61     5    56   1
    62     6    57   1
    63     9    58   1
    64    10    59   1
    65    18    60   1
    66    18    61   1
    67    19    62   1
    68    19    63   1
    69    19    64   1
    70    20    65   1
    71    20    66   1
    72    20    67   1
    73    21    68   1
    74    24    69   1
    75    25    70   1
    76    25    71   1
    77    26    72   1
    78    29    73   1
    79    30    74   1
    80    31    75   1
    81    32    76   1
    82    34    77   1
    83    34    78   1
    84    35    79   1
    85    38    80   1
    86    41    81   1
    87    41    82   1
    88    42    83   1
    89    42    84   1
    90    43    85   1
    91    43    86   1
    92    44    87   1
    93    44    88   1
    94    45    89   1
    95    45    90   1
    96    47    91   1
    97    47    92   1
    98    48    93   1
    99    48    94   1
   100    48    95   1
   101    49    96   1
   102    49    97   1
   103    49    98   1
   104    50    99   1
   105    50   100   1
   106    50   101   1
   107    51   102   1
   108    51   103   1
   109    51   104   1
   110    52   105   1
   111    52   106   1
@<TRIPOS>SUBSTRUCTURE
     1  SU3      1

