@<TRIPOS>MOLECULE
3su3_ligand_059
   106   111
SMALL
GAST_HUCK
****
This file was generated by PARSER (from files_GN.cpp)

@<TRIPOS>ATOM
      1 C         -12.5596   -8.7013   11.3865 C.2         1 SU3       0.2013
      2 N         -14.1937  -10.5079   11.6904 N.am        1 SU3      -0.2469
      3 O         -11.9469   -8.1893   12.3149 O.2         1 SU3      -0.3947
      4 CA        -12.8109  -10.1418   11.4633 C.3         1 SU3       0.1363
      5 CB        -12.3858  -10.8974   10.1765 C.3         1 SU3       0.0206
      6 CG        -13.3406  -12.0989   10.1549 C.3         1 SU3       0.1158
      7 CAF       -14.9165  -10.0696   12.7386 C.2         1 SU3       0.2070
      8 OAG       -14.3316   -9.4131   13.5953 O.2         1 SU3      -0.3942
      9 CAH       -16.3548  -10.2782   12.9732 C.3         1 SU3       0.1378
     10 NAI       -16.5103  -10.8281   14.2932 N.am        1 SU3      -0.2407
     11 CAJ       -17.1358  -11.9833   14.6199 C.2         1 SU3       0.3218
     12 OAK       -17.2220  -12.3058   15.9334 O.3         1 SU3      -0.2633
     13 CAL       -17.2348   -8.9825   12.7404 C.3         1 SU3       0.0025
     14 OAM       -17.6903  -12.7835   13.6822 O.2         1 SU3      -0.3774
     15 CAO       -11.7861  -13.9598   10.8568 C.2         1 SU3       0.4317
     16 OAP       -11.0846  -13.9157    9.7020 O.2         1 SU3      -0.3166
     17 NAQ       -11.4127  -14.7804   11.8702 N.am        1 SU3      -0.2080
     18 CAR       -12.7263   -4.8058    8.0099 C.3         1 SU3      -0.0516
     19 CAS       -11.2357   -4.8805    7.6120 C.3         1 SU3      -0.0651
     20 CAT       -18.7224   -9.2643   13.1538 C.3         1 SU3      -0.0558
     21 NAV       -13.0127   -7.9705   10.3719 N.am        1 SU3      -0.2737
     22 CAX       -12.8809   -6.5515   10.1288 C.3         1 SU3       0.1374
     23 CAY       -11.8853   -5.7632   10.8263 C.2         1 SU3       0.2444
     24 CAZ       -13.2200   -6.1184    8.6803 C.3         1 SU3      -0.0066
     25 CBA       -14.2548   -5.9195    9.7948 C.3         1 SU3      -0.0152
     26 CBB       -10.3590  -15.6278   11.8690 C.2         1 SU3       0.0383
     27 CBC       -10.2883  -16.2557   13.1102 C.ar        1 SU3      -0.0374
     28 CBD       -11.3425  -15.7672   13.8838 C.ar        1 SU3      -0.0293
     29 CBE       -12.0217  -14.8606   13.0757 C.2         1 SU3       0.0366
     30 CBF        -9.3946  -17.2086   13.6209 C.ar        1 SU3      -0.0689
     31 CBG        -9.5794  -17.6672   14.9414 C.ar        1 SU3      -0.0688
     32 CBH       -10.6490  -17.1773   15.7233 C.ar        1 SU3      -0.0606
     33 CBI       -11.5485  -16.2092   15.2129 C.ar        1 SU3      -0.0432
     34 CBJ       -12.6583  -15.6905   16.0591 C.3         1 SU3      -0.0194
     35 NBK       -10.6471   -6.2359   10.8878 N.am        1 SU3      -0.1552
     36 OBL       -12.2233   -4.7436   11.4293 O.2         1 SU3      -0.3404
     37 SBM        -9.4150   -5.6849   11.8950 S.o2        1 SU3       0.0645
     38 CBN        -8.0718   -4.7638   11.1067 C.3         1 SU3       0.1004
     39 OBO        -9.9827   -4.8030   13.0922 O.2         1 SU3      -0.1503
     40 OBP        -8.8349   -6.9573   12.6595 O.2         1 SU3      -0.1503
     41 CBQ        -6.8254   -5.5388   10.6495 C.3         1 SU3      -0.0268
     42 CBR        -7.8316   -5.0305    9.6114 C.3         1 SU3      -0.0268
     43 CBS       -13.8923  -16.6282   16.0368 C.3         1 SU3      -0.0433
     44 CBT       -15.0480  -16.1738   16.9686 C.3         1 SU3      -0.0507
     45 CBU       -15.9198  -15.0100   16.4036 C.3         1 SU3      -0.0453
     46 CBV       -16.9836  -14.3688   17.3707 C.3         1 SU3      -0.0072
     47 CBW       -17.9171  -13.4111   16.5473 C.3         1 SU3       0.0824
     48 CBX       -17.8910  -15.4645   18.0238 C.3         1 SU3      -0.0574
     49 CBY       -16.2852  -13.5497   18.5080 C.3         1 SU3      -0.0574
     50 CBZ       -16.7500   -7.7364   13.5632 C.3         1 SU3      -0.0558
     51 CCA       -17.2327   -8.6001   11.2170 C.3         1 SU3      -0.0558
     52 CD1       -14.6330  -11.5053   10.7535 C.3         1 SU3       0.0677
     53 OD2       -12.8488  -13.1299   11.0227 O.3         1 SU3      -0.2338
     54 H1        -12.2358  -10.5756   12.2918 H           1 SU3       0.0803
     55 H2        -11.3352  -11.1969   10.2141 H           1 SU3       0.0342
     56 H3        -12.5351  -10.3102    9.2646 H           1 SU3       0.0342
     57 H4        -13.5021  -12.4975    9.1493 H           1 SU3       0.0673
     58 H5        -16.7252  -11.0035   12.2556 H           1 SU3       0.0805
     59 H6        -16.1684  -10.3012   15.0301 H           1 SU3       0.1899
     60 H7        -13.3184   -4.6395    7.0992 H           1 SU3       0.0265
     61 H8        -12.8625   -3.9374    8.6670 H           1 SU3       0.0265
     62 H9        -10.9547   -3.9869    7.0501 H           1 SU3       0.0230
     63 H10       -11.0413   -5.7569    6.9800 H           1 SU3       0.0230
     64 H11       -10.6010   -4.9455    8.5009 H           1 SU3       0.0230
     65 H12       -19.3781   -8.4253   12.9039 H           1 SU3       0.0237
     66 H13       -18.7916   -9.4265   14.2371 H           1 SU3       0.0237
     67 H14       -19.1093  -10.1593   12.6529 H           1 SU3       0.0237
     68 H15       -13.5102   -8.4625    9.6997 H           1 SU3       0.1839
     69 H16       -13.4811   -6.9271    7.9978 H           1 SU3       0.0312
     70 H17       -14.4298   -4.8875   10.1082 H           1 SU3       0.0279
     71 H18       -15.1139   -6.5841    9.7201 H           1 SU3       0.0279
     72 H19        -9.7082  -15.7874   11.0975 H           1 SU3       0.0373
     73 H20       -12.8540  -14.3328   13.3567 H           1 SU3       0.0361
     74 H21        -8.6251  -17.5631   13.0495 H           1 SU3       0.0557
     75 H22        -8.9341  -18.3547   15.3338 H           1 SU3       0.0599
     76 H23       -10.7619  -17.5292   16.6733 H           1 SU3       0.0557
     77 H24       -12.9455  -14.6922   15.7302 H           1 SU3       0.0426
     78 H25       -12.3064  -15.5846   17.0862 H           1 SU3       0.0426
     79 H26       -10.4740   -7.0679   10.4129 H           1 SU3       0.2148
     80 H27        -7.8930   -3.7325   11.4131 H           1 SU3       0.0559
     81 H28        -6.8151   -6.6163   10.7979 H           1 SU3       0.0285
     82 H29        -5.8875   -4.9905   10.7020 H           1 SU3       0.0285
     83 H30        -7.4793   -4.1874    9.0165 H           1 SU3       0.0285
     84 H31        -8.4152   -5.8168    9.1317 H           1 SU3       0.0285
     85 H32       -13.5748  -17.6227   16.3636 H           1 SU3       0.0287
     86 H33       -14.2657  -16.7252   15.0147 H           1 SU3       0.0287
     87 H34       -14.6332  -15.8984   17.9377 H           1 SU3       0.0267
     88 H35       -15.6998  -17.0357   17.1261 H           1 SU3       0.0267
     89 H36       -16.4374  -15.4012   15.5224 H           1 SU3       0.0271
     90 H37       -15.2595  -14.2162   16.0497 H           1 SU3       0.0271
     91 H38       -18.4531  -13.9880   15.7928 H           1 SU3       0.0617
     92 H39       -18.6707  -12.9737   17.2064 H           1 SU3       0.0617
     93 H40       -17.3163  -16.1089   18.6930 H           1 SU3       0.0236
     94 H41       -18.3495  -16.0935   17.2574 H           1 SU3       0.0236
     95 H42       -18.6906  -15.0118   18.6147 H           1 SU3       0.0236
     96 H43       -15.5973  -12.8148   18.0886 H           1 SU3       0.0236
     97 H44       -15.7159  -14.1985   19.1751 H           1 SU3       0.0236
     98 H45       -17.0220  -13.0185   19.1151 H           1 SU3       0.0236
     99 H46       -15.7920   -7.3658   13.1816 H           1 SU3       0.0237
    100 H47       -16.6215   -8.0068   14.6163 H           1 SU3       0.0237
    101 H48       -17.4682   -6.9128   13.5013 H           1 SU3       0.0237
    102 H49       -17.6602   -9.4139   10.6172 H           1 SU3       0.0237
    103 H50       -16.2102   -8.4260   10.8661 H           1 SU3       0.0237
    104 H51       -17.8139   -7.6918   11.0259 H           1 SU3       0.0237
    105 H52       -15.2492  -11.0377    9.9803 H           1 SU3       0.0553
    106 H53       -15.1985  -12.3114   11.2278 H           1 SU3       0.0553
@<TRIPOS>BOND
     1     1     3   2
     2     1     4   1
     3    21     1  am
     4     4     2   1
     5     2     7  am
     6     2    52   1
     7     4     5   1
     8     5     6   1
     9     6    52   1
    10     6    53   1
    11     7     8   2
    12     7     9   1
    13     9    10   1
    14     9    13   1
    15    10    11  am
    16    11    12   1
    17    11    14   2
    18    12    47   1
    19    13    20   1
    20    13    50   1
    21    13    51   1
    22    15    16   2
    23    15    17  am
    24    53    15   1
    25    17    26   1
    26    17    29   1
    27    18    19   1
    28    24    18   1
    29    22    21   1
    30    22    23   1
    31    22    24   1
    32    22    25   1
    33    23    35  am
    34    23    36   2
    35    24    25   1
    36    26    27   2
    37    27    28  ar
    38    27    30  ar
    39    28    29   2
    40    28    33  ar
    41    30    31  ar
    42    31    32  ar
    43    32    33  ar
    44    33    34   1
    45    34    43   1
    46    35    37  am
    47    37    38   1
    48    37    39   2
    49    37    40   2
    50    38    41   1
    51    38    42   1
    52    41    42   1
    53    43    44   1
    54    44    45   1
    55    45    46   1
    56    46    47   1
    57    46    48   1
    58    46    49   1
    59     4    54   1
    60     5    55   1
    61     5    56   1
    62     6    57   1
    63     9    58   1
    64    10    59   1
    65    18    60   1
    66    18    61   1
    67    19    62   1
    68    19    63   1
    69    19    64   1
    70    20    65   1
    71    20    66   1
    72    20    67   1
    73    21    68   1
    74    24    69   1
    75    25    70   1
    76    25    71   1
    77    26    72   1
    78    29    73   1
    79    30    74   1
    80    31    75   1
    81    32    76   1
    82    34    77   1
    83    34    78   1
    84    35    79   1
    85    38    80   1
    86    41    81   1
    87    41    82   1
    88    42    83   1
    89    42    84   1
    90    43    85   1
    91    43    86   1
    92    44    87   1
    93    44    88   1
    94    45    89   1
    95    45    90   1
    96    47    91   1
    97    47    92   1
    98    48    93   1
    99    48    94   1
   100    48    95   1
   101    49    96   1
   102    49    97   1
   103    49    98   1
   104    50    99   1
   105    50   100   1
   106    50   101   1
   107    51   102   1
   108    51   103   1
   109    51   104   1
   110    52   105   1
   111    52   106   1
@<TRIPOS>SUBSTRUCTURE
     1  SU3      1

