@<TRIPOS>MOLECULE
3su3_ligand_041
   106   111
SMALL
GAST_HUCK
****
This file was generated by PARSER (from files_GN.cpp)

@<TRIPOS>ATOM
      1 C         -17.1640   -4.9549    7.8522 C.2         1 SU3       0.2013
      2 N         -16.1632   -6.4629    9.5221 N.am        1 SU3      -0.2469
      3 O         -17.1231   -3.7338    7.7557 O.2         1 SU3      -0.3947
      4 CA        -15.9777   -5.6704    8.3220 C.3         1 SU3       0.1363
      5 CB        -15.4597   -6.6629    7.2515 C.3         1 SU3       0.0206
      6 CG        -14.8010   -7.7668    8.0910 C.3         1 SU3       0.1158
      7 CAF       -16.6237   -5.9636   10.6877 C.2         1 SU3       0.2070
      8 OAG       -16.7774   -4.7502   10.7570 O.2         1 SU3      -0.3942
      9 CAH       -16.9459   -6.7243   11.9118 C.3         1 SU3       0.1378
     10 NAI       -16.1697   -6.1662   12.9911 N.am        1 SU3      -0.2407
     11 CAJ       -15.3275   -6.8357   13.8106 C.2         1 SU3       0.3218
     12 OAK       -14.8050   -6.1460   14.8588 O.3         1 SU3      -0.2633
     13 CAL       -18.4891   -6.7978   12.2790 C.3         1 SU3       0.0025
     14 OAM       -15.0715   -8.1564   13.6532 O.2         1 SU3      -0.3774
     15 CAO       -12.3369   -7.3260    7.7511 C.2         1 SU3       0.4317
     16 OAP       -12.3561   -7.7316    6.4577 O.2         1 SU3      -0.3166
     17 NAQ       -11.2021   -6.8482    8.3171 N.am        1 SU3      -0.2080
     18 CAR       -20.4891   -3.6742    4.9225 C.3         1 SU3      -0.0516
     19 CAS       -20.9726   -4.0455    3.5052 C.3         1 SU3      -0.0651
     20 CAT       -18.6730   -7.4088   13.7104 C.3         1 SU3      -0.0558
     21 NAV       -18.2678   -5.6256    7.5495 N.am        1 SU3      -0.2737
     22 CAX       -19.4766   -5.0504    7.0507 C.3         1 SU3       0.1374
     23 CAY       -20.2695   -4.2687    7.9771 C.2         1 SU3       0.2444
     24 CAZ       -19.5631   -4.7613    5.5296 C.3         1 SU3      -0.0066
     25 CBA       -20.2498   -6.0046    6.1101 C.3         1 SU3      -0.0152
     26 CBB        -9.9908   -6.7434    7.7267 C.2         1 SU3       0.0383
     27 CBC        -9.0960   -6.1913    8.6352 C.ar        1 SU3      -0.0374
     28 CBD        -9.7971   -5.9416    9.8153 C.ar        1 SU3      -0.0293
     29 CBE       -11.1008   -6.3700    9.5790 C.2         1 SU3       0.0366
     30 CBF        -7.7276   -5.8918    8.5236 C.ar        1 SU3      -0.0689
     31 CBG        -7.0690   -5.3360    9.6382 C.ar        1 SU3      -0.0688
     32 CBH        -7.7801   -5.0737   10.8318 C.ar        1 SU3      -0.0606
     33 CBI        -9.1640   -5.3682   10.9443 C.ar        1 SU3      -0.0432
     34 CBJ        -9.8956   -5.0662   12.2059 C.3         1 SU3      -0.0194
     35 NBK       -20.8677   -4.8719    8.9868 N.am        1 SU3      -0.1552
     36 OBL       -20.3346   -3.0576    7.8052 O.2         1 SU3      -0.3404
     37 SBM       -21.9307   -4.1339   10.0676 S.o2        1 SU3       0.0645
     38 CBN       -23.1733   -5.3723   10.5185 C.3         1 SU3       0.1004
     39 OBO       -21.1631   -3.6277   11.3650 O.2         1 SU3      -0.1503
     40 OBP       -22.6458   -2.9176    9.3321 O.2         1 SU3      -0.1503
     41 CBQ       -23.9159   -5.2155   11.8569 C.3         1 SU3      -0.0268
     42 CBR       -24.6498   -4.9532   10.5368 C.3         1 SU3      -0.0268
     43 CBS        -9.5357   -6.0516   13.3543 C.3         1 SU3      -0.0433
     44 CBT       -10.2781   -5.7942   14.6962 C.3         1 SU3      -0.0507
     45 CBU       -11.7673   -6.2528   14.7292 C.3         1 SU3      -0.0453
     46 CBV       -12.5953   -5.9285   16.0308 C.3         1 SU3      -0.0072
     47 CBW       -13.9889   -6.6362   15.9342 C.3         1 SU3       0.0824
     48 CBX       -11.8824   -6.4682   17.3145 C.3         1 SU3      -0.0574
     49 CBY       -12.8178   -4.3883   16.1915 C.3         1 SU3      -0.0574
     50 CBZ       -19.1939   -5.4033   12.2708 C.3         1 SU3      -0.0558
     51 CCA       -19.2326   -7.7277   11.2621 C.3         1 SU3      -0.0558
     52 CD1       -15.7049   -7.8116    9.3391 C.3         1 SU3       0.0677
     53 OD2       -13.4764   -7.3839    8.4900 O.3         1 SU3      -0.2338
     54 H1        -15.1718   -4.9531    8.5288 H           1 SU3       0.0803
     55 H2        -14.7526   -6.1890    6.5654 H           1 SU3       0.0342
     56 H3        -16.2710   -7.1057    6.6644 H           1 SU3       0.0342
     57 H4        -14.7856   -8.7337    7.5775 H           1 SU3       0.0673
     58 H5        -16.6427   -7.7609   11.7748 H           1 SU3       0.0805
     59 H6        -16.3203   -5.2296   13.1981 H           1 SU3       0.1899
     60 H7        -21.3707   -3.5014    5.5464 H           1 SU3       0.0265
     61 H8        -19.9245   -2.7406    4.8742 H           1 SU3       0.0265
     62 H9        -21.5878   -3.2378    3.1020 H           1 SU3       0.0230
     63 H10       -21.5732   -4.9556    3.5355 H           1 SU3       0.0230
     64 H11       -20.1206   -4.2017    2.8411 H           1 SU3       0.0230
     65 H12       -19.7314   -7.5727   13.9400 H           1 SU3       0.0237
     66 H13       -18.2719   -6.7454   14.4772 H           1 SU3       0.0237
     67 H14       -18.1610   -8.3694   13.7856 H           1 SU3       0.0237
     68 H15       -18.2504   -6.5876    7.6668 H           1 SU3       0.1839
     69 H16       -18.6535   -4.9984    4.9668 H           1 SU3       0.0312
     70 H17       -21.3417   -5.9715    6.1472 H           1 SU3       0.0279
     71 H18       -19.7659   -6.9509    5.8517 H           1 SU3       0.0279
     72 H19        -9.7545   -7.0259    6.7722 H           1 SU3       0.0373
     73 H20       -11.8635   -6.3271   10.2587 H           1 SU3       0.0361
     74 H21        -7.2168   -6.0850    7.6598 H           1 SU3       0.0557
     75 H22        -6.0699   -5.1201    9.5825 H           1 SU3       0.0599
     76 H23        -7.2765   -4.6598   11.6205 H           1 SU3       0.0557
     77 H24       -10.9712   -5.0915   12.0400 H           1 SU3       0.0426
     78 H25        -9.6537   -4.0437   12.5059 H           1 SU3       0.0426
     79 H26       -20.7424   -5.8315    9.0777 H           1 SU3       0.2148
     80 H27       -22.9919   -6.4067   10.2231 H           1 SU3       0.0559
     81 H28       -23.6982   -4.3300   12.4558 H           1 SU3       0.0285
     82 H29       -24.1911   -6.1468   12.3582 H           1 SU3       0.0285
     83 H30       -25.3712   -5.7180   10.2546 H           1 SU3       0.0285
     84 H31       -24.8855   -3.9061   10.3501 H           1 SU3       0.0285
     85 H32        -8.4630   -5.9709   13.5479 H           1 SU3       0.0287
     86 H33        -9.7332   -7.0768   13.0281 H           1 SU3       0.0287
     87 H34       -10.2094   -4.7357   14.9425 H           1 SU3       0.0267
     88 H35        -9.7371   -6.3418   15.4703 H           1 SU3       0.0267
     89 H36       -11.7709   -7.3350   14.5696 H           1 SU3       0.0271
     90 H37       -12.2840   -5.8061   13.8770 H           1 SU3       0.0271
     91 H38       -13.8509   -7.7185   15.8561 H           1 SU3       0.0617
     92 H39       -14.5509   -6.4545   16.8532 H           1 SU3       0.0617
     93 H40       -10.9660   -5.9126   17.5110 H           1 SU3       0.0236
     94 H41       -11.6298   -7.5249   17.1990 H           1 SU3       0.0236
     95 H42       -12.5196   -6.3652   18.1969 H           1 SU3       0.0236
     96 H43       -13.2752   -3.9634   15.2955 H           1 SU3       0.0236
     97 H44       -11.8738   -3.8715   16.3659 H           1 SU3       0.0236
     98 H45       -13.4726   -4.1783   17.0405 H           1 SU3       0.0236
     99 H46       -19.2464   -5.0119   11.2580 H           1 SU3       0.0237
    100 H47       -18.6612   -4.6817   12.8974 H           1 SU3       0.0237
    101 H48       -20.2158   -5.4877   12.6480 H           1 SU3       0.0237
    102 H49       -18.8237   -8.7397   11.2966 H           1 SU3       0.0237
    103 H50       -19.1303   -7.3567   10.2411 H           1 SU3       0.0237
    104 H51       -20.2998   -7.7891   11.4887 H           1 SU3       0.0237
    105 H52       -16.5616   -8.4742    9.1799 H           1 SU3       0.0553
    106 H53       -15.1142   -8.1793   10.1826 H           1 SU3       0.0553
@<TRIPOS>BOND
     1     1     3   2
     2     1     4   1
     3    21     1  am
     4     4     2   1
     5     2     7  am
     6     2    52   1
     7     4     5   1
     8     5     6   1
     9     6    52   1
    10     6    53   1
    11     7     8   2
    12     7     9   1
    13     9    10   1
    14     9    13   1
    15    10    11  am
    16    11    12   1
    17    11    14   2
    18    12    47   1
    19    13    20   1
    20    13    50   1
    21    13    51   1
    22    15    16   2
    23    15    17  am
    24    53    15   1
    25    17    26   1
    26    17    29   1
    27    18    19   1
    28    24    18   1
    29    22    21   1
    30    22    23   1
    31    22    24   1
    32    22    25   1
    33    23    35  am
    34    23    36   2
    35    24    25   1
    36    26    27   2
    37    27    28  ar
    38    27    30  ar
    39    28    29   2
    40    28    33  ar
    41    30    31  ar
    42    31    32  ar
    43    32    33  ar
    44    33    34   1
    45    34    43   1
    46    35    37  am
    47    37    38   1
    48    37    39   2
    49    37    40   2
    50    38    41   1
    51    38    42   1
    52    41    42   1
    53    43    44   1
    54    44    45   1
    55    45    46   1
    56    46    47   1
    57    46    48   1
    58    46    49   1
    59     4    54   1
    60     5    55   1
    61     5    56   1
    62     6    57   1
    63     9    58   1
    64    10    59   1
    65    18    60   1
    66    18    61   1
    67    19    62   1
    68    19    63   1
    69    19    64   1
    70    20    65   1
    71    20    66   1
    72    20    67   1
    73    21    68   1
    74    24    69   1
    75    25    70   1
    76    25    71   1
    77    26    72   1
    78    29    73   1
    79    30    74   1
    80    31    75   1
    81    32    76   1
    82    34    77   1
    83    34    78   1
    84    35    79   1
    85    38    80   1
    86    41    81   1
    87    41    82   1
    88    42    83   1
    89    42    84   1
    90    43    85   1
    91    43    86   1
    92    44    87   1
    93    44    88   1
    94    45    89   1
    95    45    90   1
    96    47    91   1
    97    47    92   1
    98    48    93   1
    99    48    94   1
   100    48    95   1
   101    49    96   1
   102    49    97   1
   103    49    98   1
   104    50    99   1
   105    50   100   1
   106    50   101   1
   107    51   102   1
   108    51   103   1
   109    51   104   1
   110    52   105   1
   111    52   106   1
@<TRIPOS>SUBSTRUCTURE
     1  SU3      1

