@<TRIPOS>MOLECULE
3su3_ligand_079
   106   111
SMALL
GAST_HUCK
****
This file was generated by PARSER (from files_GN.cpp)

@<TRIPOS>ATOM
      1 C         -24.6667   -9.5784   14.5274 C.2         1 SU3       0.2013
      2 N         -22.4382  -10.0548   13.7396 N.am        1 SU3      -0.2469
      3 O         -24.8764  -10.7168   14.9359 O.2         1 SU3      -0.3947
      4 CA        -23.6949   -9.3930   13.4519 C.3         1 SU3       0.1363
      5 CB        -24.1916  -10.0000   12.1155 C.3         1 SU3       0.0206
      6 CG        -22.9210  -10.5994   11.4923 C.3         1 SU3       0.1158
      7 CAF       -21.6830   -9.7814   14.8215 C.2         1 SU3       0.2070
      8 OAG       -21.9562   -8.7714   15.4613 O.2         1 SU3      -0.3942
      9 CAH       -20.5794  -10.6103   15.3333 C.3         1 SU3       0.1378
     10 NAI       -19.3687   -9.8488   15.2123 N.am        1 SU3      -0.2407
     11 CAJ       -18.2351  -10.2221   14.5800 C.2         1 SU3       0.3218
     12 OAK       -17.1559   -9.4131   14.7324 O.3         1 SU3      -0.2633
     13 CAL       -20.7618  -11.1750   16.8073 C.3         1 SU3       0.0025
     14 OAM       -18.1392  -11.3984   13.9101 O.2         1 SU3      -0.3774
     15 CAO       -22.4391   -9.0674    9.5432 C.2         1 SU3       0.4317
     16 OAP       -23.5457   -9.4495    8.8631 O.2         1 SU3      -0.3166
     17 NAQ       -21.5819   -8.1517    9.0216 N.am        1 SU3      -0.2080
     18 CAR       -25.9742   -9.3643   18.8924 C.3         1 SU3      -0.0516
     19 CAS       -25.3055  -10.7171   19.2222 C.3         1 SU3      -0.0651
     20 CAT       -22.1639  -11.8573   16.9533 C.3         1 SU3      -0.0558
     21 NAV       -25.2574   -8.5363   15.1020 N.am        1 SU3      -0.2737
     22 CAX       -26.1073   -8.5951   16.2510 C.3         1 SU3       0.1374
     23 CAY       -27.4350   -9.1480   16.0663 C.2         1 SU3       0.2444
     24 CAZ       -25.3704   -8.7267   17.6133 C.3         1 SU3      -0.0066
     25 CBA       -25.9918   -7.3849   17.2031 C.3         1 SU3      -0.0152
     26 CBB       -21.7101   -7.5330    7.8268 C.2         1 SU3       0.0383
     27 CBC       -20.6240   -6.6838    7.6453 C.ar        1 SU3      -0.0374
     28 CBD       -19.8164   -6.7875    8.7762 C.ar        1 SU3      -0.0293
     29 CBE       -20.4440   -7.7132    9.6088 C.2         1 SU3       0.0366
     30 CBF       -20.2791   -5.8420    6.5755 C.ar        1 SU3      -0.0689
     31 CBG       -19.0824   -5.1027    6.6638 C.ar        1 SU3      -0.0688
     32 CBH       -18.2619   -5.2061    7.8067 C.ar        1 SU3      -0.0606
     33 CBI       -18.6154   -6.0451    8.8933 C.ar        1 SU3      -0.0432
     34 CBJ       -17.7314   -6.1419   10.0871 C.3         1 SU3      -0.0194
     35 NBK       -27.6107  -10.4591   16.0827 N.am        1 SU3      -0.1552
     36 OBL       -28.3468   -8.3833   15.7730 O.2         1 SU3      -0.3404
     37 SBM       -29.0861  -11.2315   15.8166 S.o2        1 SU3       0.0645
     38 CBN       -29.9795  -10.7325   14.3212 C.3         1 SU3       0.1004
     39 OBO       -28.7940  -12.7953   15.7400 O.2         1 SU3      -0.1503
     40 OBP       -29.9984  -11.0318   17.1067 O.2         1 SU3      -0.1503
     41 CBQ       -29.1492  -10.1917   13.1469 C.3         1 SU3      -0.0268
     42 CBR       -29.8313  -11.5583   13.0338 C.3         1 SU3      -0.0268
     43 CBS       -16.5142   -7.0695    9.8284 C.3         1 SU3      -0.0433
     44 CBT       -15.5766   -7.2477   11.0575 C.3         1 SU3      -0.0507
     45 CBU       -16.1021   -8.2498   12.1304 C.3         1 SU3      -0.0453
     46 CBV       -15.2444   -8.4181   13.4424 C.3         1 SU3      -0.0072
     47 CBW       -15.8076   -9.6183   14.2784 C.3         1 SU3       0.0824
     48 CBX       -13.7505   -8.7399   13.1105 C.3         1 SU3      -0.0574
     49 CBY       -15.3028   -7.1212   14.3135 C.3         1 SU3      -0.0574
     50 CBZ       -19.6715  -12.2675   17.0913 C.3         1 SU3      -0.0558
     51 CCA       -20.6136  -10.0852   17.9258 C.3         1 SU3      -0.0558
     52 CD1       -22.1014  -11.0151   12.7279 C.3         1 SU3       0.0677
     53 OD2       -22.1672   -9.6281   10.7536 O.3         1 SU3      -0.2338
     54 H1        -23.4979   -8.3281   13.2844 H           1 SU3       0.0803
     55 H2        -24.6513   -9.2432   11.4746 H           1 SU3       0.0342
     56 H3        -24.9192  -10.8021   12.2737 H           1 SU3       0.0342
     57 H4        -23.1413  -11.4613   10.8558 H           1 SU3       0.0673
     58 H5        -20.5067  -11.4968   14.7014 H           1 SU3       0.0805
     59 H6        -19.3345   -9.0121   15.6947 H           1 SU3       0.1899
     60 H7        -25.8134   -8.6838   19.7326 H           1 SU3       0.0265
     61 H8        -27.0520   -9.5087   18.7849 H           1 SU3       0.0265
     62 H9        -25.7726  -11.1618   20.1048 H           1 SU3       0.0230
     63 H10       -24.2413  -10.5763   19.4358 H           1 SU3       0.0230
     64 H11       -25.4085  -11.4105   18.3857 H           1 SU3       0.0230
     65 H12       -22.2622  -12.3639   17.9171 H           1 SU3       0.0237
     66 H13       -22.3176  -12.5976   16.1643 H           1 SU3       0.0237
     67 H14       -22.9638  -11.1186   16.8865 H           1 SU3       0.0237
     68 H15       -25.0713   -7.6561   14.7362 H           1 SU3       0.1839
     69 H16       -24.2791   -8.6834   17.5704 H           1 SU3       0.0312
     70 H17       -26.8972   -7.0828   17.7332 H           1 SU3       0.0279
     71 H18       -25.2754   -6.6101   16.9264 H           1 SU3       0.0279
     72 H19       -22.4666   -7.6666    7.1520 H           1 SU3       0.0373
     73 H20       -20.0884   -8.0202   10.5180 H           1 SU3       0.0361
     74 H21       -20.8761   -5.7737    5.7491 H           1 SU3       0.0557
     75 H22       -18.8074   -4.4916    5.8924 H           1 SU3       0.0599
     76 H23       -17.3980   -4.6602    7.8426 H           1 SU3       0.0557
     77 H24       -18.2949   -6.5102   10.9444 H           1 SU3       0.0426
     78 H25       -17.3805   -5.1418   10.3532 H           1 SU3       0.0426
     79 H26       -26.8404  -11.0227   16.2705 H           1 SU3       0.2148
     80 H27       -30.9443  -10.2380   14.4487 H           1 SU3       0.0559
     81 H28       -28.0602  -10.2337   13.2218 H           1 SU3       0.0285
     82 H29       -29.6117   -9.3966   12.5566 H           1 SU3       0.0285
     83 H30       -30.6987  -11.5808   12.3686 H           1 SU3       0.0285
     84 H31       -29.1493  -12.4121   13.0501 H           1 SU3       0.0285
     85 H32       -15.9230   -6.6400    9.0141 H           1 SU3       0.0287
     86 H33       -16.8619   -8.0513    9.4975 H           1 SU3       0.0287
     87 H34       -15.3956   -6.2692   11.5043 H           1 SU3       0.0267
     88 H35       -14.6210   -7.6181   10.6798 H           1 SU3       0.0267
     89 H36       -16.1887   -9.2244   11.6432 H           1 SU3       0.0271
     90 H37       -17.1116   -7.9510   12.4181 H           1 SU3       0.0271
     91 H38       -15.7309  -10.5442   13.7017 H           1 SU3       0.0617
     92 H39       -15.2058   -9.7541   15.1811 H           1 SU3       0.0617
     93 H40       -13.2626   -7.8953   12.6223 H           1 SU3       0.0236
     94 H41       -13.6811   -9.6064   12.4494 H           1 SU3       0.0236
     95 H42       -13.1861   -8.9609   14.0201 H           1 SU3       0.0236
     96 H43       -16.3345   -6.8638   14.5617 H           1 SU3       0.0236
     97 H44       -14.8610   -6.2725   13.7914 H           1 SU3       0.0236
     98 H45       -14.7525   -7.2565   15.2476 H           1 SU3       0.0236
     99 H46       -18.6661  -11.8574   16.9839 H           1 SU3       0.0237
    100 H47       -19.7684  -13.1079   16.4017 H           1 SU3       0.0237
    101 H48       -19.7564  -12.6611   18.1078 H           1 SU3       0.0237
    102 H49       -21.3295   -9.2743   17.8092 H           1 SU3       0.0237
    103 H50       -19.6097   -9.6579   17.9169 H           1 SU3       0.0237
    104 H51       -20.7800  -10.5184   18.9148 H           1 SU3       0.0237
    105 H52       -22.3812  -12.0215   13.0567 H           1 SU3       0.0553
    106 H53       -21.0345  -11.0056   12.4830 H           1 SU3       0.0553
@<TRIPOS>BOND
     1     1     3   2
     2     1     4   1
     3    21     1  am
     4     4     2   1
     5     2     7  am
     6     2    52   1
     7     4     5   1
     8     5     6   1
     9     6    52   1
    10     6    53   1
    11     7     8   2
    12     7     9   1
    13     9    10   1
    14     9    13   1
    15    10    11  am
    16    11    12   1
    17    11    14   2
    18    12    47   1
    19    13    20   1
    20    13    50   1
    21    13    51   1
    22    15    16   2
    23    15    17  am
    24    53    15   1
    25    17    26   1
    26    17    29   1
    27    18    19   1
    28    24    18   1
    29    22    21   1
    30    22    23   1
    31    22    24   1
    32    22    25   1
    33    23    35  am
    34    23    36   2
    35    24    25   1
    36    26    27   2
    37    27    28  ar
    38    27    30  ar
    39    28    29   2
    40    28    33  ar
    41    30    31  ar
    42    31    32  ar
    43    32    33  ar
    44    33    34   1
    45    34    43   1
    46    35    37  am
    47    37    38   1
    48    37    39   2
    49    37    40   2
    50    38    41   1
    51    38    42   1
    52    41    42   1
    53    43    44   1
    54    44    45   1
    55    45    46   1
    56    46    47   1
    57    46    48   1
    58    46    49   1
    59     4    54   1
    60     5    55   1
    61     5    56   1
    62     6    57   1
    63     9    58   1
    64    10    59   1
    65    18    60   1
    66    18    61   1
    67    19    62   1
    68    19    63   1
    69    19    64   1
    70    20    65   1
    71    20    66   1
    72    20    67   1
    73    21    68   1
    74    24    69   1
    75    25    70   1
    76    25    71   1
    77    26    72   1
    78    29    73   1
    79    30    74   1
    80    31    75   1
    81    32    76   1
    82    34    77   1
    83    34    78   1
    84    35    79   1
    85    38    80   1
    86    41    81   1
    87    41    82   1
    88    42    83   1
    89    42    84   1
    90    43    85   1
    91    43    86   1
    92    44    87   1
    93    44    88   1
    94    45    89   1
    95    45    90   1
    96    47    91   1
    97    47    92   1
    98    48    93   1
    99    48    94   1
   100    48    95   1
   101    49    96   1
   102    49    97   1
   103    49    98   1
   104    50    99   1
   105    50   100   1
   106    50   101   1
   107    51   102   1
   108    51   103   1
   109    51   104   1
   110    52   105   1
   111    52   106   1
@<TRIPOS>SUBSTRUCTURE
     1  SU3      1

