@<TRIPOS>MOLECULE
3su3_ligand_026
   106   111
SMALL
GAST_HUCK
****
This file was generated by PARSER (from files_GN.cpp)

@<TRIPOS>ATOM
      1 C         -13.1842  -10.3829   14.2677 C.2         1 SU3       0.2013
      2 N         -14.9508  -12.0426   14.1633 N.am        1 SU3      -0.2469
      3 O         -12.9183  -10.3176   13.0750 O.2         1 SU3      -0.3947
      4 CA        -13.7071  -11.6476   14.7884 C.3         1 SU3       0.1363
      5 CB        -12.7275  -12.8222   14.5409 C.3         1 SU3       0.0206
      6 CG        -13.6517  -14.0142   14.2474 C.3         1 SU3       0.1158
      7 CAF       -16.0636  -11.2849   14.1825 C.2         1 SU3       0.2070
      8 OAG       -16.0824  -10.3184   14.9355 O.2         1 SU3      -0.3942
      9 CAH       -17.2783  -11.5066   13.3820 C.3         1 SU3       0.1378
     10 NAI       -18.3716  -11.7293   14.2919 N.am        1 SU3      -0.2407
     11 CAJ       -19.2043  -12.7949   14.3068 C.2         1 SU3       0.3218
     12 OAK       -20.2569  -12.7633   15.1633 O.3         1 SU3      -0.2633
     13 CAL       -17.5985  -10.3591   12.3245 C.3         1 SU3       0.0025
     14 OAM       -19.0558  -13.8270   13.4400 O.2         1 SU3      -0.3774
     15 CAO       -13.3712  -15.4600   16.2949 C.2         1 SU3       0.4317
     16 OAP       -12.1013  -15.8024   15.9746 O.2         1 SU3      -0.3166
     17 NAQ       -13.9497  -15.9181   17.4349 N.am        1 SU3      -0.2080
     18 CAR       -13.0326   -5.4260   15.5818 C.3         1 SU3      -0.0516
     19 CAS       -11.8646   -4.5887   16.1373 C.3         1 SU3      -0.0651
     20 CAT       -17.7937   -8.9484   12.9732 C.3         1 SU3      -0.0558
     21 NAV       -13.0595   -9.3301   15.0731 N.am        1 SU3      -0.2737
     22 CAX       -12.5720   -8.0057   14.7761 C.3         1 SU3       0.1374
     23 CAY       -12.3245   -7.5712   13.4116 C.2         1 SU3       0.2444
     24 CAZ       -12.8836   -6.9463   15.8743 C.3         1 SU3      -0.0066
     25 CBA       -11.4832   -7.5640   15.7798 C.3         1 SU3      -0.0152
     26 CBB       -13.3776  -16.7299   18.3516 C.2         1 SU3       0.0383
     27 CBC       -14.3000  -16.9817   19.3602 C.ar        1 SU3      -0.0374
     28 CBD       -15.4635  -16.2822   19.0470 C.ar        1 SU3      -0.0293
     29 CBE       -15.2088  -15.6350   17.8404 C.2         1 SU3       0.0366
     30 CBF       -14.2185  -17.7825   20.5124 C.ar        1 SU3      -0.0689
     31 CBG       -15.3420  -17.8593   21.3569 C.ar        1 SU3      -0.0688
     32 CBH       -16.5241  -17.1493   21.0418 C.ar        1 SU3      -0.0606
     33 CBI       -16.6061  -16.3415   19.8803 C.ar        1 SU3      -0.0432
     34 CBJ       -17.8752  -15.6432   19.5331 C.3         1 SU3      -0.0194
     35 NBK       -11.1054   -7.7143   12.9106 N.am        1 SU3      -0.1552
     36 OBL       -13.2586   -7.1360   12.7502 O.2         1 SU3      -0.3404
     37 SBM       -10.5630   -7.2002   11.4017 S.o2        1 SU3       0.0645
     38 CBN        -9.2386   -5.9646   11.4424 C.3         1 SU3       0.1004
     39 OBO       -10.0550   -8.4912   10.6254 O.2         1 SU3      -0.1503
     40 OBP       -11.7502   -6.6456   10.4962 O.2         1 SU3      -0.1503
     41 CBQ        -9.6168   -4.6097   12.0613 C.3         1 SU3      -0.0268
     42 CBR        -8.6292   -5.5332   12.7876 C.3         1 SU3      -0.0268
     43 CBS       -18.8530  -16.5940   18.7917 C.3         1 SU3      -0.0433
     44 CBT       -20.2100  -15.9456   18.4045 C.3         1 SU3      -0.0507
     45 CBU       -20.1655  -15.0677   17.1170 C.3         1 SU3      -0.0453
     46 CBV       -21.4899  -14.3090   16.7204 C.3         1 SU3      -0.0072
     47 CBW       -21.3333  -13.7088   15.2805 C.3         1 SU3       0.0824
     48 CBX       -22.7200  -15.2782   16.6903 C.3         1 SU3      -0.0574
     49 CBY       -21.7893  -13.1477   17.7224 C.3         1 SU3      -0.0574
     50 CBZ       -16.4435  -10.2648   11.2695 C.3         1 SU3      -0.0558
     51 CCA       -18.9116  -10.7190   11.5535 C.3         1 SU3      -0.0558
     52 CD1       -14.8632  -13.3458   13.5738 C.3         1 SU3       0.0677
     53 OD2       -14.0785  -14.6502   15.4615 O.3         1 SU3      -0.2338
     54 H1        -13.8837  -11.5782   15.8682 H           1 SU3       0.0803
     55 H2        -12.0845  -13.0004   15.4061 H           1 SU3       0.0342
     56 H3        -12.0889  -12.6538   13.6689 H           1 SU3       0.0342
     57 H4        -13.1885  -14.7488   13.5815 H           1 SU3       0.0673
     58 H5        -17.1435  -12.4081   12.7816 H           1 SU3       0.0805
     59 H6        -18.5750  -11.0160   14.9164 H           1 SU3       0.1899
     60 H7        -13.1158   -5.2249   14.5146 H           1 SU3       0.0265
     61 H8        -13.9588   -5.0962   16.0574 H           1 SU3       0.0265
     62 H9        -12.1247   -3.5328   16.0915 H           1 SU3       0.0230
     63 H10       -10.9642   -4.7500   15.5391 H           1 SU3       0.0230
     64 H11       -11.6517   -4.8495   17.1731 H           1 SU3       0.0230
     65 H12       -18.1842   -8.2302   12.2435 H           1 SU3       0.0237
     66 H13       -16.8463   -8.5467   13.3293 H           1 SU3       0.0237
     67 H14       -18.4919   -8.9953   13.8120 H           1 SU3       0.0237
     68 H15       -13.3008   -9.4807   16.0007 H           1 SU3       0.1839
     69 H16       -13.4331   -7.3146   16.7454 H           1 SU3       0.0312
     70 H17       -10.6937   -6.9001   15.4175 H           1 SU3       0.0279
     71 H18       -11.2466   -8.2560   16.5923 H           1 SU3       0.0279
     72 H19       -12.4296  -17.1167   18.3158 H           1 SU3       0.0373
     73 H20       -15.8779  -15.0490   17.3377 H           1 SU3       0.0361
     74 H21       -13.3620  -18.2928   20.7340 H           1 SU3       0.0557
     75 H22       -15.3061  -18.4356   22.1999 H           1 SU3       0.0599
     76 H23       -17.3306  -17.2367   21.6649 H           1 SU3       0.0557
     77 H24       -17.6676  -14.7702   18.9140 H           1 SU3       0.0426
     78 H25       -18.3443  -15.2713   20.4492 H           1 SU3       0.0426
     79 H26       -10.4411   -8.1099   13.4973 H           1 SU3       0.2148
     80 H27        -8.5740   -5.8898   10.5778 H           1 SU3       0.0559
     81 H28       -10.5971   -4.5248   12.5385 H           1 SU3       0.0285
     82 H29        -9.1734   -3.7309   11.5942 H           1 SU3       0.0285
     83 H30        -7.5923   -5.1944   12.7639 H           1 SU3       0.0285
     84 H31        -9.0200   -6.0040   13.6929 H           1 SU3       0.0285
     85 H32       -19.0638  -17.4439   19.4463 H           1 SU3       0.0287
     86 H33       -18.3723  -16.9862   17.8918 H           1 SU3       0.0287
     87 H34       -20.5794  -15.3608   19.2488 H           1 SU3       0.0267
     88 H35       -20.9167  -16.7602   18.2348 H           1 SU3       0.0267
     89 H36       -19.8781  -15.7248   16.2894 H           1 SU3       0.0271
     90 H37       -19.3636  -14.3329   17.2262 H           1 SU3       0.0271
     91 H38       -21.2153  -14.5200   14.5571 H           1 SU3       0.0617
     92 H39       -22.2431  -13.1711   15.0053 H           1 SU3       0.0617
     93 H40       -22.9551  -15.6523   17.6872 H           1 SU3       0.0236
     94 H41       -22.5207  -16.1325   16.0406 H           1 SU3       0.0236
     95 H42       -23.6088  -14.7659   16.3165 H           1 SU3       0.0236
     96 H43       -20.9440  -12.4597   17.7900 H           1 SU3       0.0236
     97 H44       -21.9905  -13.5345   18.7212 H           1 SU3       0.0236
     98 H45       -22.6656  -12.5784   17.4057 H           1 SU3       0.0236
     99 H46       -16.2406  -11.2419   10.8259 H           1 SU3       0.0237
    100 H47       -15.5168   -9.9049   11.7254 H           1 SU3       0.0237
    101 H48       -16.7093   -9.5773   10.4592 H           1 SU3       0.0237
    102 H49       -19.7665  -10.7449   12.2334 H           1 SU3       0.0237
    103 H50       -18.8249  -11.6956   11.0718 H           1 SU3       0.0237
    104 H51       -19.1305   -9.9783   10.7760 H           1 SU3       0.0237
    105 H52       -14.7095  -13.2539   12.4962 H           1 SU3       0.0553
    106 H53       -15.7542  -13.9543   13.7598 H           1 SU3       0.0553
@<TRIPOS>BOND
     1     1     3   2
     2     1     4   1
     3    21     1  am
     4     4     2   1
     5     2     7  am
     6     2    52   1
     7     4     5   1
     8     5     6   1
     9     6    52   1
    10     6    53   1
    11     7     8   2
    12     7     9   1
    13     9    10   1
    14     9    13   1
    15    10    11  am
    16    11    12   1
    17    11    14   2
    18    12    47   1
    19    13    20   1
    20    13    50   1
    21    13    51   1
    22    15    16   2
    23    15    17  am
    24    53    15   1
    25    17    26   1
    26    17    29   1
    27    18    19   1
    28    24    18   1
    29    22    21   1
    30    22    23   1
    31    22    24   1
    32    22    25   1
    33    23    35  am
    34    23    36   2
    35    24    25   1
    36    26    27   2
    37    27    28  ar
    38    27    30  ar
    39    28    29   2
    40    28    33  ar
    41    30    31  ar
    42    31    32  ar
    43    32    33  ar
    44    33    34   1
    45    34    43   1
    46    35    37  am
    47    37    38   1
    48    37    39   2
    49    37    40   2
    50    38    41   1
    51    38    42   1
    52    41    42   1
    53    43    44   1
    54    44    45   1
    55    45    46   1
    56    46    47   1
    57    46    48   1
    58    46    49   1
    59     4    54   1
    60     5    55   1
    61     5    56   1
    62     6    57   1
    63     9    58   1
    64    10    59   1
    65    18    60   1
    66    18    61   1
    67    19    62   1
    68    19    63   1
    69    19    64   1
    70    20    65   1
    71    20    66   1
    72    20    67   1
    73    21    68   1
    74    24    69   1
    75    25    70   1
    76    25    71   1
    77    26    72   1
    78    29    73   1
    79    30    74   1
    80    31    75   1
    81    32    76   1
    82    34    77   1
    83    34    78   1
    84    35    79   1
    85    38    80   1
    86    41    81   1
    87    41    82   1
    88    42    83   1
    89    42    84   1
    90    43    85   1
    91    43    86   1
    92    44    87   1
    93    44    88   1
    94    45    89   1
    95    45    90   1
    96    47    91   1
    97    47    92   1
    98    48    93   1
    99    48    94   1
   100    48    95   1
   101    49    96   1
   102    49    97   1
   103    49    98   1
   104    50    99   1
   105    50   100   1
   106    50   101   1
   107    51   102   1
   108    51   103   1
   109    51   104   1
   110    52   105   1
   111    52   106   1
@<TRIPOS>SUBSTRUCTURE
     1  SU3      1

