@<TRIPOS>MOLECULE
3su3_ligand_088
   106   111
SMALL
GAST_HUCK
****
This file was generated by PARSER (from files_GN.cpp)

@<TRIPOS>ATOM
      1 C          -9.1497   -8.0748    7.3989 C.2         1 SU3       0.2013
      2 N         -10.2179   -6.5030    8.9602 N.am        1 SU3      -0.2469
      3 O          -8.8153   -9.2164    7.7031 O.2         1 SU3      -0.3947
      4 CA        -10.3967   -7.5447    7.9655 C.3         1 SU3       0.1363
      5 CB        -11.3354   -6.9480    6.8767 C.3         1 SU3       0.0206
      6 CG        -11.9811   -5.7274    7.5519 C.3         1 SU3       0.1158
      7 CAF        -9.5978   -6.6928   10.1459 C.2         1 SU3       0.2070
      8 OAG        -9.2944   -7.8409   10.4571 O.2         1 SU3      -0.3942
      9 CAH        -9.3156   -5.6629   11.1669 C.3         1 SU3       0.1378
     10 NAI       -10.1744   -5.9613   12.2852 N.am        1 SU3      -0.2407
     11 CAJ       -10.9495   -5.0726   12.9541 C.2         1 SU3       0.3218
     12 OAK       -11.4143   -5.4472   14.1721 O.3         1 SU3      -0.2633
     13 CAL        -7.7853   -5.4287   11.6075 C.3         1 SU3       0.0025
     14 OAM       -11.1256   -3.8123   12.4960 O.2         1 SU3      -0.3774
     15 CAO       -14.3948   -6.3857    7.5926 C.2         1 SU3       0.4317
     16 OAP       -14.4936   -6.3368    6.2401 O.2         1 SU3      -0.3166
     17 NAQ       -15.4609   -6.7414    8.3443 N.am        1 SU3      -0.2080
     18 CAR        -5.9953   -7.0738    3.4684 C.3         1 SU3      -0.0516
     19 CAS        -4.8337   -6.0873    3.2003 C.3         1 SU3      -0.0651
     20 CAT        -7.5474   -5.6200   13.1466 C.3         1 SU3      -0.0558
     21 NAV        -8.4352   -7.3572    6.5323 N.am        1 SU3      -0.2737
     22 CAX        -7.2681   -7.7803    5.8006 C.3         1 SU3       0.1374
     23 CAY        -7.1380   -9.1497    5.3218 C.2         1 SU3       0.2444
     24 CAZ        -6.7830   -6.7179    4.7668 C.3         1 SU3      -0.0066
     25 CBA        -6.0194   -6.9168    6.0861 C.3         1 SU3      -0.0152
     26 CBB       -16.6861   -7.0682    7.8766 C.2         1 SU3       0.0383
     27 CBC       -17.5026   -7.3974    8.9507 C.ar        1 SU3      -0.0374
     28 CBD       -16.7384   -7.2671   10.1077 C.ar        1 SU3      -0.0293
     29 CBE       -15.4782   -6.8493    9.6944 C.2         1 SU3       0.0366
     30 CBF       -18.8480   -7.7980    8.9992 C.ar        1 SU3      -0.0689
     31 CBG       -19.4213   -8.0702   10.2575 C.ar        1 SU3      -0.0688
     32 CBH       -18.6520   -7.9401   11.4359 C.ar        1 SU3      -0.0606
     33 CBI       -17.2942   -7.5396   11.3859 C.ar        1 SU3      -0.0432
     34 CBJ       -16.5025   -7.3905   12.6370 C.3         1 SU3      -0.0194
     35 NBK        -6.1867   -9.9243    5.8157 N.am        1 SU3      -0.1552
     36 OBL        -7.9586   -9.5459    4.4892 O.2         1 SU3      -0.3404
     37 SBM        -5.8609  -11.4942    5.2966 S.o2        1 SU3       0.0645
     38 CBN        -4.2985  -12.0271    6.0384 C.3         1 SU3       0.1004
     39 OBO        -7.0497  -12.4555    5.7294 O.2         1 SU3      -0.1503
     40 OBP        -5.6703  -11.4917    3.7125 O.2         1 SU3      -0.1503
     41 CBQ        -4.1312  -11.7642    7.5489 C.3         1 SU3      -0.0268
     42 CBR        -4.3154  -13.1945    7.0399 C.3         1 SU3      -0.0268
     43 CBS       -16.7397   -6.0056   13.2987 C.3         1 SU3      -0.0433
     44 CBT       -15.9024   -5.7677   14.5869 C.3         1 SU3      -0.0507
     45 CBU       -14.4151   -5.3818   14.3331 C.3         1 SU3      -0.0453
     46 CBV       -13.4794   -5.2161   15.5909 C.3         1 SU3      -0.0072
     47 CBW       -12.1096   -4.6197   15.1240 C.3         1 SU3       0.0824
     48 CBX       -14.0956   -4.2232   16.6331 C.3         1 SU3      -0.0574
     49 CBY       -13.2195   -6.5911   16.2896 C.3         1 SU3      -0.0574
     50 CBZ        -6.7553   -6.3636   10.8854 C.3         1 SU3      -0.0558
     51 CCA        -7.3478   -3.9625   11.2660 C.3         1 SU3      -0.0558
     52 CD1       -10.9389   -5.3100    8.6066 C.3         1 SU3       0.0677
     53 OD2       -13.2132   -6.0882    8.1981 O.3         1 SU3      -0.2338
     54 H1        -10.9524   -8.3609    8.4481 H           1 SU3       0.0803
     55 H2        -12.0784   -7.6835    6.5558 H           1 SU3       0.0342
     56 H3        -10.7993   -6.6111    5.9826 H           1 SU3       0.0342
     57 H4        -12.1473   -4.9097    6.8391 H           1 SU3       0.0673
     58 H5         -9.6455   -4.7173   10.7478 H           1 SU3       0.0805
     59 H6        -10.0603   -6.8348   12.6962 H           1 SU3       0.1899
     60 H7         -5.5757   -8.0865    3.5125 H           1 SU3       0.0265
     61 H8         -6.6901   -7.0372    2.6218 H           1 SU3       0.0265
     62 H9         -4.3221   -6.3629    2.2756 H           1 SU3       0.0230
     63 H10        -4.1119   -6.1169    4.0204 H           1 SU3       0.0230
     64 H11        -5.2138   -5.0668    3.0996 H           1 SU3       0.0230
     65 H12        -6.5074   -5.4355   13.4229 H           1 SU3       0.0237
     66 H13        -7.7962   -6.6378   13.4516 H           1 SU3       0.0237
     67 H14        -8.1657   -4.9299   13.7253 H           1 SU3       0.0237
     68 H15        -8.7702   -6.4648    6.3244 H           1 SU3       0.1839
     69 H16        -7.3466   -5.7787    4.7435 H           1 SU3       0.0312
     70 H17        -5.0400   -7.3967    6.0006 H           1 SU3       0.0279
     71 H18        -6.1424   -6.1130    6.8125 H           1 SU3       0.0279
     72 H19       -16.9796   -7.0822    6.8993 H           1 SU3       0.0373
     73 H20       -14.6879   -6.6627   10.3171 H           1 SU3       0.0361
     74 H21       -19.3992   -7.8870    8.1410 H           1 SU3       0.0557
     75 H22       -20.3992   -8.3594   10.3154 H           1 SU3       0.0599
     76 H23       -19.0963   -8.1389   12.3357 H           1 SU3       0.0557
     77 H24       -15.4401   -7.5227   12.4282 H           1 SU3       0.0426
     78 H25       -16.7813   -8.1820   13.3395 H           1 SU3       0.0426
     79 H26        -5.5953   -9.5406    6.4918 H           1 SU3       0.2148
     80 H27        -3.3738  -11.8953    5.4674 H           1 SU3       0.0559
     81 H28        -4.9887  -11.3528    8.0834 H           1 SU3       0.0285
     82 H29        -3.1239  -11.5123    7.8858 H           1 SU3       0.0285
     83 H30        -3.4204  -13.8163    7.0618 H           1 SU3       0.0285
     84 H31        -5.2831  -13.6418    7.2695 H           1 SU3       0.0285
     85 H32       -17.7983   -5.9326   13.5657 H           1 SU3       0.0287
     86 H33       -16.5270   -5.2088   12.5802 H           1 SU3       0.0287
     87 H34       -15.9566   -6.6621   15.2075 H           1 SU3       0.0267
     88 H35       -16.3787   -4.9518   15.1358 H           1 SU3       0.0267
     89 H36       -14.4219   -4.4406   13.7756 H           1 SU3       0.0271
     90 H37       -13.9736   -6.1339   13.6757 H           1 SU3       0.0271
     91 H38       -12.2736   -3.6162   14.7240 H           1 SU3       0.0617
     92 H39       -11.4432   -4.5084   15.9815 H           1 SU3       0.0617
     93 H40       -14.9924   -4.6401   17.0944 H           1 SU3       0.0236
     94 H41       -14.3613   -3.2765   16.1562 H           1 SU3       0.0236
     95 H42       -13.3839   -4.0086   17.4337 H           1 SU3       0.0236
     96 H43       -12.8103   -7.3153   15.5824 H           1 SU3       0.0236
     97 H44       -14.1386   -7.0059   16.7056 H           1 SU3       0.0236
     98 H45       -12.5071   -6.4795   17.1099 H           1 SU3       0.0236
     99 H46        -6.8549   -6.2854    9.8020 H           1 SU3       0.0237
    100 H47        -6.9110   -7.4021   11.1805 H           1 SU3       0.0237
    101 H48        -5.7265   -6.1066   11.1459 H           1 SU3       0.0237
    102 H49        -7.9631   -3.2395   11.8080 H           1 SU3       0.0237
    103 H50        -7.4543   -3.7691   10.1950 H           1 SU3       0.0237
    104 H51        -6.3056   -3.7704   11.5287 H           1 SU3       0.0237
    105 H52       -10.2369   -4.5787    8.1947 H           1 SU3       0.0553
    106 H53       -11.4740   -4.8682    9.4547 H           1 SU3       0.0553
@<TRIPOS>BOND
     1     1     3   2
     2     1     4   1
     3    21     1  am
     4     4     2   1
     5     2     7  am
     6     2    52   1
     7     4     5   1
     8     5     6   1
     9     6    52   1
    10     6    53   1
    11     7     8   2
    12     7     9   1
    13     9    10   1
    14     9    13   1
    15    10    11  am
    16    11    12   1
    17    11    14   2
    18    12    47   1
    19    13    20   1
    20    13    50   1
    21    13    51   1
    22    15    16   2
    23    15    17  am
    24    53    15   1
    25    17    26   1
    26    17    29   1
    27    18    19   1
    28    24    18   1
    29    22    21   1
    30    22    23   1
    31    22    24   1
    32    22    25   1
    33    23    35  am
    34    23    36   2
    35    24    25   1
    36    26    27   2
    37    27    28  ar
    38    27    30  ar
    39    28    29   2
    40    28    33  ar
    41    30    31  ar
    42    31    32  ar
    43    32    33  ar
    44    33    34   1
    45    34    43   1
    46    35    37  am
    47    37    38   1
    48    37    39   2
    49    37    40   2
    50    38    41   1
    51    38    42   1
    52    41    42   1
    53    43    44   1
    54    44    45   1
    55    45    46   1
    56    46    47   1
    57    46    48   1
    58    46    49   1
    59     4    54   1
    60     5    55   1
    61     5    56   1
    62     6    57   1
    63     9    58   1
    64    10    59   1
    65    18    60   1
    66    18    61   1
    67    19    62   1
    68    19    63   1
    69    19    64   1
    70    20    65   1
    71    20    66   1
    72    20    67   1
    73    21    68   1
    74    24    69   1
    75    25    70   1
    76    25    71   1
    77    26    72   1
    78    29    73   1
    79    30    74   1
    80    31    75   1
    81    32    76   1
    82    34    77   1
    83    34    78   1
    84    35    79   1
    85    38    80   1
    86    41    81   1
    87    41    82   1
    88    42    83   1
    89    42    84   1
    90    43    85   1
    91    43    86   1
    92    44    87   1
    93    44    88   1
    94    45    89   1
    95    45    90   1
    96    47    91   1
    97    47    92   1
    98    48    93   1
    99    48    94   1
   100    48    95   1
   101    49    96   1
   102    49    97   1
   103    49    98   1
   104    50    99   1
   105    50   100   1
   106    50   101   1
   107    51   102   1
   108    51   103   1
   109    51   104   1
   110    52   105   1
   111    52   106   1
@<TRIPOS>SUBSTRUCTURE
     1  SU3      1

