@<TRIPOS>MOLECULE
3su5_ligand_043
   106   111
SMALL
GAST_HUCK
****
This file was generated by PARSER (from files_GN.cpp)

@<TRIPOS>ATOM
      1 C         -12.3532   -7.7284   10.8120 C.2         1 SU3       0.2013
      2 N         -14.6792   -8.2275   10.4158 N.am        1 SU3      -0.2469
      3 O         -12.5934   -6.5504   10.5663 O.2         1 SU3      -0.3947
      4 CA        -13.3365   -8.7547   10.4758 C.3         1 SU3       0.1363
      5 CB        -13.0821   -9.3770    9.0835 C.3         1 SU3       0.0206
      6 CG        -14.0228   -8.6221    8.1321 C.3         1 SU3       0.1158
      7 CAF       -15.4198   -7.9463   11.5073 C.2         1 SU3       0.2070
      8 OAG       -14.9791   -8.2749   12.6034 O.2         1 SU3      -0.3942
      9 CAH       -16.7719   -7.3585   11.5026 C.3         1 SU3       0.1378
     10 NAI       -17.6964   -8.4441   11.6896 N.am        1 SU3      -0.2407
     11 CAJ       -18.7087   -8.7910   10.8624 C.2         1 SU3       0.3218
     12 OAK       -19.4990   -9.8140   11.2741 O.3         1 SU3      -0.2633
     13 CAL       -17.0420   -6.1564   12.5062 C.3         1 SU3       0.0025
     14 OAM       -18.9813   -8.1117    9.7215 O.2         1 SU3      -0.3774
     15 CAO       -14.1064  -10.0963    6.0530 C.2         1 SU3       0.4317
     16 OAP       -12.8292   -9.8576    5.6719 O.2         1 SU3      -0.3166
     17 NAQ       -14.8996  -10.9635    5.3749 N.am        1 SU3      -0.2080
     18 CAR        -7.5923   -7.3545   12.6546 C.3         1 SU3      -0.0516
     19 CAS        -6.5005   -8.4293   12.8246 C.3         1 SU3      -0.0651
     20 CAT       -16.0397   -4.9892   12.2149 C.3         1 SU3      -0.0558
     21 NAV       -11.1823   -8.0884   11.3183 N.am        1 SU3      -0.2737
     22 CAX       -10.1343   -7.1861   11.6942 C.3         1 SU3       0.1374
     23 CAY       -10.4362   -6.2313   12.7462 C.2         1 SU3       0.2444
     24 CAZ        -8.7145   -7.8139   11.6761 C.3         1 SU3      -0.0066
     25 CBA        -9.1350   -6.8205   10.5784 C.3         1 SU3      -0.0152
     26 CBB       -14.5927  -11.6474    4.2484 C.2         1 SU3       0.0383
     27 CBC       -15.6675  -12.4676    3.9175 C.ar        1 SU3      -0.0374
     28 CBD       -16.6495  -12.2770    4.8872 C.ar        1 SU3      -0.0293
     29 CBE       -16.1481  -11.3177    5.7585 C.2         1 SU3       0.0366
     30 CBF       -15.8623  -13.3729    2.8611 C.ar        1 SU3      -0.0689
     31 CBG       -17.0752  -14.0892    2.8058 C.ar        1 SU3      -0.0688
     32 CBH       -18.0622  -13.9071    3.8007 C.ar        1 SU3      -0.0606
     33 CBI       -17.8660  -12.9998    4.8736 C.ar        1 SU3      -0.0432
     34 CBJ       -18.8815  -12.8354    5.9519 C.3         1 SU3      -0.0194
     35 NBK       -10.8355   -6.7006   13.9160 N.am        1 SU3      -0.1552
     36 OBL       -10.4179   -5.0314   12.4960 O.2         1 SU3      -0.3404
     37 SBM       -11.4210   -5.7439   15.1750 S.o2        1 SU3       0.0645
     38 CBN       -12.0912   -6.8104   16.4733 C.3         1 SU3       0.1004
     39 OBO       -10.2320   -4.8564   15.7448 O.2         1 SU3      -0.1503
     40 OBP       -12.6012   -4.8371   14.6142 O.2         1 SU3      -0.1503
     41 CBQ       -11.8059   -6.4552   17.9411 C.3         1 SU3      -0.0268
     42 CBR       -13.2045   -6.2251   17.3570 C.3         1 SU3      -0.0268
     43 CBS       -18.4353  -13.4909    7.2911 C.3         1 SU3      -0.0433
     44 CBT       -19.4736  -13.3973    8.4438 C.3         1 SU3      -0.0507
     45 CBU       -19.6373  -11.9768    9.0663 C.3         1 SU3      -0.0453
     46 CBV       -20.6314  -11.8281   10.2802 C.3         1 SU3      -0.0072
     47 CBW       -20.7116  -10.3156   10.6930 C.3         1 SU3       0.0824
     48 CBX       -22.0731  -12.2861    9.8803 C.3         1 SU3      -0.0574
     49 CBY       -20.1601  -12.6664   11.5138 C.3         1 SU3      -0.0574
     50 CBZ       -18.4964   -5.6069   12.2877 C.3         1 SU3      -0.0558
     51 CCA       -16.9209   -6.5551   14.0168 C.3         1 SU3      -0.0558
     52 CD1       -15.1260   -8.0714    9.0616 C.3         1 SU3       0.0677
     53 OD2       -14.6129   -9.4855    7.1563 O.3         1 SU3      -0.2338
     54 H1        -13.2864   -9.5656   11.2124 H           1 SU3       0.0803
     55 H2        -13.3569  -10.4360    9.1062 H           1 SU3       0.0342
     56 H3        -12.0402   -9.3043    8.7584 H           1 SU3       0.0342
     57 H4        -13.4943   -7.7996    7.6411 H           1 SU3       0.0673
     58 H5        -16.9352   -6.9306   10.5135 H           1 SU3       0.0805
     59 H6        -17.6021   -8.9664   12.5034 H           1 SU3       0.1899
     60 H7         -7.1183   -6.4357   12.2988 H           1 SU3       0.0265
     61 H8         -8.0180   -7.1523   13.6391 H           1 SU3       0.0265
     62 H9         -5.7088   -8.0561   13.4764 H           1 SU3       0.0230
     63 H10        -6.0653   -8.6848   11.8561 H           1 SU3       0.0230
     64 H11        -6.9270   -9.3274   13.2743 H           1 SU3       0.0230
     65 H12       -16.2253   -4.1378   12.8742 H           1 SU3       0.0237
     66 H13       -16.1372   -4.6445   11.1825 H           1 SU3       0.0237
     67 H14       -15.0078   -5.3150   12.3678 H           1 SU3       0.0237
     68 H15       -11.0221   -9.0366   11.4580 H           1 SU3       0.1839
     69 H16        -8.6782   -8.8471   11.3165 H           1 SU3       0.0312
     70 H17        -8.7206   -5.8116   10.6223 H           1 SU3       0.0279
     71 H18        -9.3429   -7.2540    9.5984 H           1 SU3       0.0279
     72 H19       -13.7162  -11.5900    3.7237 H           1 SU3       0.0373
     73 H20       -16.6447  -10.9624    6.5787 H           1 SU3       0.0361
     74 H21       -15.1409  -13.5099    2.1496 H           1 SU3       0.0557
     75 H22       -17.2364  -14.7529    2.0446 H           1 SU3       0.0599
     76 H23       -18.9237  -14.4551    3.7420 H           1 SU3       0.0557
     77 H24       -19.8293  -13.2874    5.6474 H           1 SU3       0.0426
     78 H25       -19.0688  -11.7695    6.0947 H           1 SU3       0.0426
     79 H26       -10.8218   -7.6642   14.0510 H           1 SU3       0.2148
     80 H27       -12.2134   -7.8724   16.2549 H           1 SU3       0.0559
     81 H28       -11.2369   -5.5456   18.1382 H           1 SU3       0.0285
     82 H29       -11.7223   -7.2956   18.6332 H           1 SU3       0.0285
     83 H30       -13.9653   -6.9239   17.7093 H           1 SU3       0.0285
     84 H31       -13.4727   -5.1763   17.2112 H           1 SU3       0.0285
     85 H32       -17.4948  -13.0533    7.6326 H           1 SU3       0.0287
     86 H33       -18.2466  -14.5515    7.0982 H           1 SU3       0.0287
     87 H34       -19.1497  -14.0855    9.2270 H           1 SU3       0.0267
     88 H35       -20.4342  -13.7537    8.0675 H           1 SU3       0.0267
     89 H36       -19.9657  -11.3030    8.2715 H           1 SU3       0.0271
     90 H37       -18.6477  -11.6360    9.3837 H           1 SU3       0.0271
     91 H38       -21.0128   -9.7081    9.8345 H           1 SU3       0.0617
     92 H39       -21.4796  -10.1820   11.4591 H           1 SU3       0.0617
     93 H40       -22.1062  -13.3560    9.6720 H           1 SU3       0.0236
     94 H41       -22.4149  -11.7526    8.9909 H           1 SU3       0.0236
     95 H42       -22.7827  -12.0908   10.6875 H           1 SU3       0.0236
     96 H43       -19.1277  -12.4264   11.7767 H           1 SU3       0.0236
     97 H44       -20.2175  -13.7365   11.3105 H           1 SU3       0.0236
     98 H45       -20.7886  -12.4621   12.3837 H           1 SU3       0.0236
     99 H46       -19.2428   -6.3707   12.5227 H           1 SU3       0.0237
    100 H47       -18.6464   -5.2937   11.2515 H           1 SU3       0.0237
    101 H48       -18.6918   -4.7409   12.9272 H           1 SU3       0.0237
    102 H49       -15.8939   -6.8024   14.2865 H           1 SU3       0.0237
    103 H50       -17.5510   -7.4153   14.2456 H           1 SU3       0.0237
    104 H51       -17.2402   -5.7336   14.6636 H           1 SU3       0.0237
    105 H52       -15.3069   -7.0184    8.8334 H           1 SU3       0.0553
    106 H53       -16.0544   -8.6306    8.9231 H           1 SU3       0.0553
@<TRIPOS>BOND
     1     1     3   2
     2     1     4   1
     3    21     1  am
     4     4     2   1
     5     2     7  am
     6     2    52   1
     7     4     5   1
     8     5     6   1
     9     6    52   1
    10     6    53   1
    11     7     8   2
    12     7     9   1
    13     9    10   1
    14     9    13   1
    15    10    11  am
    16    11    12   1
    17    11    14   2
    18    12    47   1
    19    13    20   1
    20    13    50   1
    21    13    51   1
    22    15    16   2
    23    15    17  am
    24    53    15   1
    25    17    26   1
    26    17    29   1
    27    18    19   1
    28    24    18   1
    29    22    21   1
    30    22    23   1
    31    22    24   1
    32    22    25   1
    33    23    35  am
    34    23    36   2
    35    24    25   1
    36    26    27   2
    37    27    28  ar
    38    27    30  ar
    39    28    29   2
    40    28    33  ar
    41    30    31  ar
    42    31    32  ar
    43    32    33  ar
    44    33    34   1
    45    34    43   1
    46    35    37  am
    47    37    38   1
    48    37    39   2
    49    37    40   2
    50    38    41   1
    51    38    42   1
    52    41    42   1
    53    43    44   1
    54    44    45   1
    55    45    46   1
    56    46    47   1
    57    46    48   1
    58    46    49   1
    59     4    54   1
    60     5    55   1
    61     5    56   1
    62     6    57   1
    63     9    58   1
    64    10    59   1
    65    18    60   1
    66    18    61   1
    67    19    62   1
    68    19    63   1
    69    19    64   1
    70    20    65   1
    71    20    66   1
    72    20    67   1
    73    21    68   1
    74    24    69   1
    75    25    70   1
    76    25    71   1
    77    26    72   1
    78    29    73   1
    79    30    74   1
    80    31    75   1
    81    32    76   1
    82    34    77   1
    83    34    78   1
    84    35    79   1
    85    38    80   1
    86    41    81   1
    87    41    82   1
    88    42    83   1
    89    42    84   1
    90    43    85   1
    91    43    86   1
    92    44    87   1
    93    44    88   1
    94    45    89   1
    95    45    90   1
    96    47    91   1
    97    47    92   1
    98    48    93   1
    99    48    94   1
   100    48    95   1
   101    49    96   1
   102    49    97   1
   103    49    98   1
   104    50    99   1
   105    50   100   1
   106    50   101   1
   107    51   102   1
   108    51   103   1
   109    51   104   1
   110    52   105   1
   111    52   106   1
@<TRIPOS>SUBSTRUCTURE
     1  SU3      1

