@<TRIPOS>MOLECULE
3su5_ligand_039
   106   111
SMALL
GAST_HUCK
****
This file was generated by PARSER (from files_GN.cpp)

@<TRIPOS>ATOM
      1 C         -11.3795   -7.1850    8.9470 C.2         1 SU3       0.2013
      2 N          -9.7144   -5.5871    9.4315 N.am        1 SU3      -0.2469
      3 O         -10.8315   -7.9537    8.1418 O.2         1 SU3      -0.3947
      4 CA        -11.0419   -5.7637    8.9077 C.3         1 SU3       0.1363
      5 CB        -10.9908   -5.1205    7.4988 C.3         1 SU3       0.0206
      6 CG         -9.5170   -5.2127    7.0673 C.3         1 SU3       0.1158
      7 CAF        -9.4317   -5.6120   10.7420 C.2         1 SU3       0.2070
      8 OAG       -10.3597   -5.5876   11.5371 O.2         1 SU3      -0.3942
      9 CAH        -8.0767   -5.5873   11.3061 C.3         1 SU3       0.1378
     10 NAI        -7.8265   -4.2219   11.6709 N.am        1 SU3      -0.2407
     11 CAJ        -6.7947   -3.4571   11.2527 C.2         1 SU3       0.3218
     12 OAK        -6.6622   -2.2312   11.8292 O.3         1 SU3      -0.2633
     13 CAL        -7.7647   -6.5914   12.4894 C.3         1 SU3       0.0025
     14 OAM        -5.8833   -3.9136   10.3609 O.2         1 SU3      -0.3774
     15 CAO        -9.2836   -3.5964    5.1330 C.2         1 SU3       0.4317
     16 OAP       -10.0311   -4.3499    4.2921 O.2         1 SU3      -0.3166
     17 NAQ        -8.7767   -2.3969    4.7352 N.am        1 SU3      -0.2080
     18 CAR       -12.0428  -11.2360   11.6274 C.3         1 SU3      -0.0516
     19 CAS       -12.5478  -11.7022   13.0138 C.3         1 SU3      -0.0651
     20 CAT        -6.2163   -6.6928   12.6902 C.3         1 SU3      -0.0558
     21 NAV       -12.1999   -7.6533    9.8887 N.am        1 SU3      -0.2737
     22 CAX       -12.5858   -9.0217   10.1083 C.3         1 SU3       0.1374
     23 CAY       -12.9570   -9.8305    8.9594 C.2         1 SU3       0.2444
     24 CAZ       -12.1572   -9.6958   11.4470 C.3         1 SU3      -0.0066
     25 CBA       -13.5789   -9.1286   11.2942 C.3         1 SU3      -0.0152
     26 CBB        -8.9262   -1.8183    3.5245 C.2         1 SU3       0.0383
     27 CBC        -8.3009   -0.5712    3.5419 C.ar        1 SU3      -0.0374
     28 CBD        -7.7566   -0.4029    4.8133 C.ar        1 SU3      -0.0293
     29 CBE        -8.0507   -1.5664    5.5189 C.2         1 SU3       0.0366
     30 CBF        -8.1769    0.4217    2.5609 C.ar        1 SU3      -0.0689
     31 CBG        -7.4831    1.6068    2.8894 C.ar        1 SU3      -0.0688
     32 CBH        -6.9410    1.7835    4.1794 C.ar        1 SU3      -0.0606
     33 CBI        -7.0725    0.7830    5.1773 C.ar        1 SU3      -0.0432
     34 CBJ        -6.5226    0.9714    6.5470 C.3         1 SU3      -0.0194
     35 NBK       -14.1220   -9.6105    8.3732 N.am        1 SU3      -0.1552
     36 OBL       -12.1202  -10.5967    8.5097 O.2         1 SU3      -0.3404
     37 SBM       -14.6530  -10.4210    6.9979 S.o2        1 SU3       0.0645
     38 CBN       -14.6236  -12.2184    7.1727 C.3         1 SU3       0.1004
     39 OBO       -16.1818  -10.0249    6.8452 O.2         1 SU3      -0.1503
     40 OBP       -13.9097   -9.8783    5.6962 O.2         1 SU3      -0.1503
     41 CBQ       -14.7818  -13.0600    5.8986 C.3         1 SU3      -0.0268
     42 CBR       -13.4183  -12.9800    6.5948 C.3         1 SU3      -0.0268
     43 CBS        -7.6363    1.2152    7.6050 C.3         1 SU3      -0.0433
     44 CBT        -7.1244    1.3730    9.0634 C.3         1 SU3      -0.0507
     45 CBU        -6.5933    0.0616    9.7216 C.3         1 SU3      -0.0453
     46 CBV        -6.1117    0.1470   11.2183 C.3         1 SU3      -0.0072
     47 CBW        -5.6051   -1.2675   11.6765 C.3         1 SU3       0.0824
     48 CBX        -4.9166    1.1467   11.3562 C.3         1 SU3      -0.0574
     49 CBY        -7.2719    0.5958   12.1670 C.3         1 SU3      -0.0574
     50 CBZ        -8.3963   -6.1481   13.8555 C.3         1 SU3      -0.0558
     51 CCA        -8.2744   -8.0319   12.1516 C.3         1 SU3      -0.0558
     52 CD1        -8.7493   -5.3817    8.3929 C.3         1 SU3       0.0677
     53 OD2        -9.0608   -4.0259    6.4043 O.3         1 SU3      -0.2338
     54 H1        -11.7732   -5.1922    9.4947 H           1 SU3       0.0803
     55 H2        -11.2753   -4.0708    7.5751 H           1 SU3       0.0342
     56 H3        -11.6634   -5.6058    6.7834 H           1 SU3       0.0342
     57 H4         -9.3617   -6.0888    6.4270 H           1 SU3       0.0673
     58 H5         -7.3919   -5.8772   10.5175 H           1 SU3       0.0805
     59 H6         -8.4268   -3.8175   12.3206 H           1 SU3       0.1899
     60 H7        -12.6029  -11.7793   10.8629 H           1 SU3       0.0265
     61 H8        -10.9889  -11.5063   11.5277 H           1 SU3       0.0265
     62 H9        -12.3147  -12.7616   13.1507 H           1 SU3       0.0230
     63 H10       -13.6272  -11.5693   13.0931 H           1 SU3       0.0230
     64 H11       -12.0684  -11.1360   13.8122 H           1 SU3       0.0230
     65 H12        -5.9727   -7.3836   13.4951 H           1 SU3       0.0237
     66 H13        -5.7989   -5.7237   12.9404 H           1 SU3       0.0237
     67 H14        -5.7331   -7.0481   11.7833 H           1 SU3       0.0237
     68 H15       -12.5568   -6.9899   10.5147 H           1 SU3       0.1839
     69 H16       -11.5359   -9.0845   12.1083 H           1 SU3       0.0312
     70 H17       -14.3732   -9.8740   11.2300 H           1 SU3       0.0279
     71 H18       -13.7535   -8.2312   11.8891 H           1 SU3       0.0279
     72 H19        -9.4278   -2.2092    2.7240 H           1 SU3       0.0373
     73 H20        -7.7738   -1.7450    6.4881 H           1 SU3       0.0361
     74 H21        -8.5756    0.2943    1.6290 H           1 SU3       0.0557
     75 H22        -7.3765    2.3421    2.1878 H           1 SU3       0.0599
     76 H23        -6.4521    2.6568    4.3923 H           1 SU3       0.0557
     77 H24        -5.8396    1.8248    6.5668 H           1 SU3       0.0426
     78 H25        -5.9358    0.0883    6.8042 H           1 SU3       0.0426
     79 H26       -14.7187   -8.9556    8.7754 H           1 SU3       0.2148
     80 H27       -15.0558  -12.6569    8.0719 H           1 SU3       0.0559
     81 H28       -14.8526  -12.5246    4.9538 H           1 SU3       0.0285
     82 H29       -15.3049  -14.0075    6.0139 H           1 SU3       0.0285
     83 H30       -13.1195  -13.8808    7.1292 H           1 SU3       0.0285
     84 H31       -12.6630  -12.3961    6.0696 H           1 SU3       0.0285
     85 H32        -8.3701    0.4077    7.5781 H           1 SU3       0.0287
     86 H33        -8.1620    2.1354    7.3313 H           1 SU3       0.0287
     87 H34        -7.9598    1.7482    9.6574 H           1 SU3       0.0267
     88 H35        -6.3452    2.1371    9.0699 H           1 SU3       0.0267
     89 H36        -5.7587   -0.3031    9.1190 H           1 SU3       0.0271
     90 H37        -7.3836   -0.6895    9.6558 H           1 SU3       0.0271
     91 H38        -4.8376   -1.6389   10.9899 H           1 SU3       0.0617
     92 H39        -5.1390   -1.1910   12.6619 H           1 SU3       0.0617
     93 H40        -5.2231    2.1676   11.1307 H           1 SU3       0.0236
     94 H41        -4.1053    0.8745   10.6783 H           1 SU3       0.0236
     95 H42        -4.5218    1.1450   12.3734 H           1 SU3       0.0236
     96 H43        -8.1599   -0.0239   12.0196 H           1 SU3       0.0236
     97 H44        -7.5500    1.6356   11.9894 H           1 SU3       0.0236
     98 H45        -6.9702    0.5086   13.2120 H           1 SU3       0.0236
     99 H46        -9.4807   -6.0508   13.8004 H           1 SU3       0.0237
    100 H47        -7.9950   -5.1862   14.1815 H           1 SU3       0.0237
    101 H48        -8.1878   -6.8775   14.6426 H           1 SU3       0.0237
    102 H49        -7.8770   -8.3738   11.1941 H           1 SU3       0.0237
    103 H50        -9.3647   -8.0625   12.0966 H           1 SU3       0.0237
    104 H51        -7.9606   -8.7477   12.9164 H           1 SU3       0.0237
    105 H52        -8.0766   -6.2398    8.3156 H           1 SU3       0.0553
    106 H53        -8.1577   -4.4864    8.6024 H           1 SU3       0.0553
@<TRIPOS>BOND
     1     1     3   2
     2     1     4   1
     3    21     1  am
     4     4     2   1
     5     2     7  am
     6     2    52   1
     7     4     5   1
     8     5     6   1
     9     6    52   1
    10     6    53   1
    11     7     8   2
    12     7     9   1
    13     9    10   1
    14     9    13   1
    15    10    11  am
    16    11    12   1
    17    11    14   2
    18    12    47   1
    19    13    20   1
    20    13    50   1
    21    13    51   1
    22    15    16   2
    23    15    17  am
    24    53    15   1
    25    17    26   1
    26    17    29   1
    27    18    19   1
    28    24    18   1
    29    22    21   1
    30    22    23   1
    31    22    24   1
    32    22    25   1
    33    23    35  am
    34    23    36   2
    35    24    25   1
    36    26    27   2
    37    27    28  ar
    38    27    30  ar
    39    28    29   2
    40    28    33  ar
    41    30    31  ar
    42    31    32  ar
    43    32    33  ar
    44    33    34   1
    45    34    43   1
    46    35    37  am
    47    37    38   1
    48    37    39   2
    49    37    40   2
    50    38    41   1
    51    38    42   1
    52    41    42   1
    53    43    44   1
    54    44    45   1
    55    45    46   1
    56    46    47   1
    57    46    48   1
    58    46    49   1
    59     4    54   1
    60     5    55   1
    61     5    56   1
    62     6    57   1
    63     9    58   1
    64    10    59   1
    65    18    60   1
    66    18    61   1
    67    19    62   1
    68    19    63   1
    69    19    64   1
    70    20    65   1
    71    20    66   1
    72    20    67   1
    73    21    68   1
    74    24    69   1
    75    25    70   1
    76    25    71   1
    77    26    72   1
    78    29    73   1
    79    30    74   1
    80    31    75   1
    81    32    76   1
    82    34    77   1
    83    34    78   1
    84    35    79   1
    85    38    80   1
    86    41    81   1
    87    41    82   1
    88    42    83   1
    89    42    84   1
    90    43    85   1
    91    43    86   1
    92    44    87   1
    93    44    88   1
    94    45    89   1
    95    45    90   1
    96    47    91   1
    97    47    92   1
    98    48    93   1
    99    48    94   1
   100    48    95   1
   101    49    96   1
   102    49    97   1
   103    49    98   1
   104    50    99   1
   105    50   100   1
   106    50   101   1
   107    51   102   1
   108    51   103   1
   109    51   104   1
   110    52   105   1
   111    52   106   1
@<TRIPOS>SUBSTRUCTURE
     1  SU3      1

