@<TRIPOS>MOLECULE
3su5_ligand_057
   106   111
SMALL
GAST_HUCK
****
This file was generated by PARSER (from files_GN.cpp)

@<TRIPOS>ATOM
      1 C         -19.2602  -14.1553   17.9714 C.2         1 SU3       0.2013
      2 N         -17.8977  -12.8949   16.4701 N.am        1 SU3      -0.2469
      3 O         -19.7299  -14.9033   17.1224 O.2         1 SU3      -0.3947
      4 CA        -18.8418  -12.8083   17.5574 C.3         1 SU3       0.1363
      5 CB        -20.0089  -11.9576   17.0022 C.3         1 SU3       0.0206
      6 CG        -19.9822  -12.2130   15.4871 C.3         1 SU3       0.1158
      7 CAF       -16.5897  -13.1805   16.6205 C.2         1 SU3       0.2070
      8 OAG       -16.1315  -13.1997   17.7575 O.2         1 SU3      -0.3942
      9 CAH       -15.6364  -13.4387   15.5256 C.3         1 SU3       0.1378
     10 NAI       -14.8575  -12.2403   15.3722 N.am        1 SU3      -0.2407
     11 CAJ       -14.7437  -11.4745   14.2644 C.2         1 SU3       0.3218
     12 OAK       -13.9407  -10.3837   14.3540 O.3         1 SU3      -0.2633
     13 CAL       -14.7271  -14.7359   15.6611 C.3         1 SU3       0.0025
     14 OAM       -15.3587  -11.7913   13.1000 O.2         1 SU3      -0.3774
     15 CAO       -21.4695  -10.3996   14.5145 C.2         1 SU3       0.4317
     16 OAP       -22.6270  -10.9048   15.0019 O.2         1 SU3      -0.3166
     17 NAQ       -21.4317   -9.2363   13.8241 N.am        1 SU3      -0.2080
     18 CAR       -21.8238  -17.1220   20.6384 C.3         1 SU3      -0.0516
     19 CAS       -22.7567  -16.2305   21.4837 C.3         1 SU3      -0.0651
     20 CAT       -14.1046  -15.0850   14.2638 C.3         1 SU3      -0.0558
     21 NAV       -19.1614  -14.5285   19.2444 N.am        1 SU3      -0.2737
     22 CAX       -19.4969  -15.7721   19.9091 C.3         1 SU3       0.1374
     23 CAY       -19.1426  -15.7918   21.3221 C.2         1 SU3       0.2444
     24 CAZ       -20.9364  -16.3082   19.6505 C.3         1 SU3      -0.0066
     25 CBA       -19.7128  -17.1070   19.1553 C.3         1 SU3      -0.0152
     26 CBB       -22.4768   -8.4524   13.4758 C.2         1 SU3       0.0383
     27 CBC       -21.9896   -7.3323   12.8068 C.ar        1 SU3      -0.0374
     28 CBD       -20.6014   -7.4418   12.7725 C.ar        1 SU3      -0.0293
     29 CBE       -20.2941   -8.6460   13.3879 C.2         1 SU3       0.0366
     30 CBF       -22.6400   -6.2287   12.2310 C.ar        1 SU3      -0.0689
     31 CBG       -21.8533   -5.2315   11.6178 C.ar        1 SU3      -0.0688
     32 CBH       -20.4442   -5.3332   11.6090 C.ar        1 SU3      -0.0606
     33 CBI       -19.7816   -6.4396   12.1983 C.ar        1 SU3      -0.0432
     34 CBJ       -18.2943   -6.5438   12.2251 C.3         1 SU3      -0.0194
     35 NBK       -18.4015  -16.7641   21.8323 N.am        1 SU3      -0.1552
     36 OBL       -19.5828  -14.8784   22.0109 O.2         1 SU3      -0.3404
     37 SBM       -18.1061  -16.9619   23.4835 S.o2        1 SU3       0.0645
     38 CBN       -19.6128  -17.2673   24.4373 C.3         1 SU3       0.1004
     39 OBO       -17.1057  -18.1936   23.6124 O.2         1 SU3      -0.1503
     40 OBP       -17.2959  -15.7005   24.0093 O.2         1 SU3      -0.1503
     41 CBQ       -19.8018  -18.6018   25.1741 C.3         1 SU3      -0.0268
     42 CBR       -19.4716  -17.3348   25.9658 C.3         1 SU3      -0.0268
     43 CBS       -17.6975   -6.3430   13.6501 C.3         1 SU3      -0.0433
     44 CBT       -16.1455   -6.4098   13.7247 C.3         1 SU3      -0.0507
     45 CBU       -15.5326   -7.8326   13.5393 C.3         1 SU3      -0.0453
     46 CBV       -13.9643   -7.9670   13.6449 C.3         1 SU3      -0.0072
     47 CBW       -13.5501   -9.4503   13.3339 C.3         1 SU3       0.0824
     48 CBX       -13.2553   -7.0478   12.5949 C.3         1 SU3      -0.0574
     49 CBY       -13.4555   -7.5863   15.0740 C.3         1 SU3      -0.0574
     50 CBZ       -13.5380  -14.5537   16.6663 C.3         1 SU3      -0.0558
     51 CCA       -15.5795  -15.9719   16.1103 C.3         1 SU3      -0.0558
     52 CD1       -18.5213  -12.6209   15.2068 C.3         1 SU3       0.0677
     53 OD2       -20.2963  -11.0449   14.7322 O.3         1 SU3      -0.2338
     54 H1        -18.4148  -12.2561   18.3982 H           1 SU3       0.0803
     55 H2        -19.8255  -10.8950   17.1988 H           1 SU3       0.0342
     56 H3        -20.9752  -12.2206   17.4407 H           1 SU3       0.0342
     57 H4        -20.6595  -13.0284   15.2224 H           1 SU3       0.0673
     58 H5        -16.2133  -13.5961   14.6152 H           1 SU3       0.0805
     59 H6        -14.3477  -11.9532   16.1479 H           1 SU3       0.1899
     60 H7        -22.4404  -17.8039   20.0479 H           1 SU3       0.0265
     61 H8        -21.2216  -17.7286   21.3218 H           1 SU3       0.0265
     62 H9        -23.4589  -16.8588   22.0338 H           1 SU3       0.0230
     63 H10       -23.3235  -15.5503   20.8441 H           1 SU3       0.0230
     64 H11       -22.1811  -15.6472   22.2050 H           1 SU3       0.0230
     65 H12       -13.4658  -15.9699   14.3244 H           1 SU3       0.0237
     66 H13       -13.4968  -14.2589   13.8891 H           1 SU3       0.0237
     67 H14       -14.8858  -15.2909   13.5282 H           1 SU3       0.0237
     68 H15       -18.8206  -13.8403   19.8414 H           1 SU3       0.1839
     69 H16       -21.4700  -15.8377   18.8261 H           1 SU3       0.0312
     70 H17       -19.4616  -18.0247   19.6993 H           1 SU3       0.0279
     71 H18       -19.5679  -17.1303   18.0760 H           1 SU3       0.0279
     72 H19       -23.4645   -8.6390   13.6656 H           1 SU3       0.0373
     73 H20       -19.3465   -9.0139   13.5042 H           1 SU3       0.0361
     74 H21       -23.6594   -6.1497   12.2574 H           1 SU3       0.0557
     75 H22       -22.3081   -4.4191   11.1970 H           1 SU3       0.0599
     76 H23       -19.9023   -4.5816   11.1789 H           1 SU3       0.0557
     77 H24       -17.8546   -5.7930   11.5625 H           1 SU3       0.0426
     78 H25       -18.0099   -7.5213   11.8308 H           1 SU3       0.0426
     79 H26       -18.0784  -17.4586   21.2371 H           1 SU3       0.2148
     80 H27       -20.5303  -16.7730   24.1091 H           1 SU3       0.0559
     81 H28       -18.9941  -19.3328   25.1212 H           1 SU3       0.0285
     82 H29       -20.8284  -18.9540   25.2845 H           1 SU3       0.0285
     83 H30       -20.3010  -16.9158   26.5388 H           1 SU3       0.0285
     84 H31       -18.4621  -17.2870   26.3800 H           1 SU3       0.0285
     85 H32       -18.1085   -7.0775   14.3455 H           1 SU3       0.0287
     86 H33       -18.0073   -5.3554   14.0059 H           1 SU3       0.0287
     87 H34       -15.8532   -6.0307   14.7062 H           1 SU3       0.0267
     88 H35       -15.7424   -5.7282   12.9740 H           1 SU3       0.0267
     89 H36       -15.8392   -8.2004   12.5579 H           1 SU3       0.0271
     90 H37       -15.9882   -8.4923   14.2831 H           1 SU3       0.0271
     91 H38       -13.9460   -9.7524   12.3607 H           1 SU3       0.0617
     92 H39       -12.4612   -9.5247   13.2700 H           1 SU3       0.0617
     93 H40       -13.4238   -5.9923   12.8115 H           1 SU3       0.0236
     94 H41       -13.6256   -7.2549   11.5883 H           1 SU3       0.0236
     95 H42       -12.1746   -7.2099   12.5994 H           1 SU3       0.0236
     96 H43       -13.9909   -8.1518   15.8393 H           1 SU3       0.0236
     97 H44       -13.6002   -6.5243   15.2760 H           1 SU3       0.0236
     98 H45       -12.3895   -7.8015   15.1764 H           1 SU3       0.0236
     99 H46       -13.8923  -14.3285   17.6719 H           1 SU3       0.0237
    100 H47       -12.8808  -13.7435   16.3481 H           1 SU3       0.0237
    101 H48       -12.9355  -15.4640   16.7281 H           1 SU3       0.0237
    102 H49       -16.4390  -16.1074   15.4508 H           1 SU3       0.0237
    103 H50       -15.9490  -15.8456   17.1288 H           1 SU3       0.0237
    104 H51       -14.9860  -16.8899   16.0875 H           1 SU3       0.0237
    105 H52       -18.5086  -13.5133   14.5773 H           1 SU3       0.0553
    106 H53       -17.9890  -11.8123   14.6939 H           1 SU3       0.0553
@<TRIPOS>BOND
     1     1     3   2
     2     1     4   1
     3    21     1  am
     4     4     2   1
     5     2     7  am
     6     2    52   1
     7     4     5   1
     8     5     6   1
     9     6    52   1
    10     6    53   1
    11     7     8   2
    12     7     9   1
    13     9    10   1
    14     9    13   1
    15    10    11  am
    16    11    12   1
    17    11    14   2
    18    12    47   1
    19    13    20   1
    20    13    50   1
    21    13    51   1
    22    15    16   2
    23    15    17  am
    24    53    15   1
    25    17    26   1
    26    17    29   1
    27    18    19   1
    28    24    18   1
    29    22    21   1
    30    22    23   1
    31    22    24   1
    32    22    25   1
    33    23    35  am
    34    23    36   2
    35    24    25   1
    36    26    27   2
    37    27    28  ar
    38    27    30  ar
    39    28    29   2
    40    28    33  ar
    41    30    31  ar
    42    31    32  ar
    43    32    33  ar
    44    33    34   1
    45    34    43   1
    46    35    37  am
    47    37    38   1
    48    37    39   2
    49    37    40   2
    50    38    41   1
    51    38    42   1
    52    41    42   1
    53    43    44   1
    54    44    45   1
    55    45    46   1
    56    46    47   1
    57    46    48   1
    58    46    49   1
    59     4    54   1
    60     5    55   1
    61     5    56   1
    62     6    57   1
    63     9    58   1
    64    10    59   1
    65    18    60   1
    66    18    61   1
    67    19    62   1
    68    19    63   1
    69    19    64   1
    70    20    65   1
    71    20    66   1
    72    20    67   1
    73    21    68   1
    74    24    69   1
    75    25    70   1
    76    25    71   1
    77    26    72   1
    78    29    73   1
    79    30    74   1
    80    31    75   1
    81    32    76   1
    82    34    77   1
    83    34    78   1
    84    35    79   1
    85    38    80   1
    86    41    81   1
    87    41    82   1
    88    42    83   1
    89    42    84   1
    90    43    85   1
    91    43    86   1
    92    44    87   1
    93    44    88   1
    94    45    89   1
    95    45    90   1
    96    47    91   1
    97    47    92   1
    98    48    93   1
    99    48    94   1
   100    48    95   1
   101    49    96   1
   102    49    97   1
   103    49    98   1
   104    50    99   1
   105    50   100   1
   106    50   101   1
   107    51   102   1
   108    51   103   1
   109    51   104   1
   110    52   105   1
   111    52   106   1
@<TRIPOS>SUBSTRUCTURE
     1  SU3      1

