@<TRIPOS>MOLECULE
3su5_ligand_065
   106   111
SMALL
GAST_HUCK
****
This file was generated by PARSER (from files_GN.cpp)

@<TRIPOS>ATOM
      1 C         -12.7006  -10.7445   12.1619 C.2         1 SU3       0.2013
      2 N         -14.3256  -12.0883   13.3212 N.am        1 SU3      -0.2469
      3 O         -13.0617  -10.9702   11.0130 O.2         1 SU3      -0.3947
      4 CA        -12.9216  -11.7717   13.1821 C.3         1 SU3       0.1363
      5 CB        -12.2273  -13.1109   12.8304 C.3         1 SU3       0.0206
      6 CG        -13.3401  -14.0219   12.2802 C.3         1 SU3       0.1158
      7 CAF       -15.2108  -11.3076   13.9697 C.2         1 SU3       0.2070
      8 OAG       -14.7798  -10.3404   14.5837 O.2         1 SU3      -0.3942
      9 CAH       -16.6585  -11.5702   14.1051 C.3         1 SU3       0.1378
     10 NAI       -16.8697  -12.0553   15.4444 N.am        1 SU3      -0.2407
     11 CAJ       -17.4171  -13.2372   15.8042 C.2         1 SU3       0.3218
     12 OAK       -17.5582  -13.4737   17.1397 O.3         1 SU3      -0.2633
     13 CAL       -17.6342  -10.3739   13.7317 C.3         1 SU3       0.0025
     14 OAM       -17.8706  -14.1295   14.8909 O.2         1 SU3      -0.3774
     15 CAO       -12.3958  -16.3724   12.5248 C.2         1 SU3       0.4317
     16 OAP       -11.4635  -16.2245   11.5556 O.2         1 SU3      -0.3166
     17 NAQ       -12.4765  -17.5093   13.2644 N.am        1 SU3      -0.2080
     18 CAR       -10.8010   -7.4449    9.3213 C.3         1 SU3      -0.0516
     19 CAS       -10.8887   -5.9041    9.4762 C.3         1 SU3      -0.0651
     20 CAT       -17.5321   -9.1359   14.6887 C.3         1 SU3      -0.0558
     21 NAV       -12.1261   -9.5928   12.5037 N.am        1 SU3      -0.2737
     22 CAX       -11.7412   -8.4474   11.7128 C.3         1 SU3       0.1374
     23 CAY       -10.8947   -7.5246   12.4536 C.2         1 SU3       0.2444
     24 CAZ       -11.7368   -8.3739   10.1581 C.3         1 SU3      -0.0066
     25 CBA       -12.9237   -7.7965   10.9482 C.3         1 SU3      -0.0152
     26 CBB       -11.7341  -18.6320   13.1264 C.2         1 SU3       0.0383
     27 CBC       -12.1022  -19.5383   14.1166 C.ar        1 SU3      -0.0374
     28 CBD       -13.0888  -18.9300   14.8915 C.ar        1 SU3      -0.0293
     29 CBE       -13.3146  -17.6857   14.3129 C.2         1 SU3       0.0366
     30 CBF       -11.6576  -20.8387   14.4089 C.ar        1 SU3      -0.0689
     31 CBG       -12.2130  -21.5083   15.5198 C.ar        1 SU3      -0.0688
     32 CBH       -13.1968  -20.8810   16.3146 C.ar        1 SU3      -0.0606
     33 CBI       -13.6574  -19.5741   16.0170 C.ar        1 SU3      -0.0432
     34 CBJ       -14.6999  -18.9120   16.8512 C.3         1 SU3      -0.0194
     35 NBK        -9.5761   -7.6314   12.3539 N.am        1 SU3      -0.1552
     36 OBL       -11.4176   -6.7385   13.2391 O.2         1 SU3      -0.3404
     37 SBM        -8.4659   -6.6009   13.1021 S.o2        1 SU3       0.0645
     38 CBN        -6.7493   -7.1765   13.0390 C.3         1 SU3       0.1004
     39 OBO        -8.5015   -5.1705   12.4088 O.2         1 SU3      -0.1503
     40 OBP        -8.8128   -6.4183   14.6455 O.2         1 SU3      -0.1503
     41 CBQ        -6.4716   -8.5411   13.6925 C.3         1 SU3      -0.0268
     42 CBR        -6.3482   -8.3807   12.1682 C.3         1 SU3      -0.0268
     43 CBS       -14.1299  -17.7658   17.7335 C.3         1 SU3      -0.0433
     44 CBT       -15.1812  -17.0693   18.6451 C.3         1 SU3      -0.0507
     45 CBU       -16.1930  -16.1513   17.8923 C.3         1 SU3      -0.0453
     46 CBV       -17.2822  -15.4010   18.7502 C.3         1 SU3      -0.0072
     47 CBW       -18.2127  -14.5774   17.7891 C.3         1 SU3       0.0824
     48 CBX       -18.1818  -16.4243   19.5206 C.3         1 SU3      -0.0574
     49 CBY       -16.6291  -14.4279   19.7841 C.3         1 SU3      -0.0574
     50 CBZ       -17.3516   -9.8951   12.2676 C.3         1 SU3      -0.0558
     51 CCA       -19.1181  -10.8856   13.7878 C.3         1 SU3      -0.0558
     52 CD1       -14.6474  -13.3746   12.7747 C.3         1 SU3       0.0677
     53 OD2       -13.2538  -15.3532   12.8014 O.3         1 SU3      -0.2338
     54 H1        -12.5124  -11.4356   14.1448 H           1 SU3       0.0803
     55 H2        -11.8048  -13.5461   13.7399 H           1 SU3       0.0342
     56 H3        -11.4139  -12.9978   12.1025 H           1 SU3       0.0342
     57 H4        -13.3201  -14.0358   11.1854 H           1 SU3       0.0673
     58 H5        -16.9246  -12.3649   13.4066 H           1 SU3       0.0805
     59 H6        -16.6078  -11.4634   16.1641 H           1 SU3       0.1899
     60 H7         -9.7636   -7.7573    9.5122 H           1 SU3       0.0265
     61 H8        -11.0057   -7.6647    8.2646 H           1 SU3       0.0265
     62 H9        -10.1408   -5.4362    8.8262 H           1 SU3       0.0230
     63 H10       -10.6912   -5.6022   10.5083 H           1 SU3       0.0230
     64 H11       -11.8815   -5.5445    9.1766 H           1 SU3       0.0230
     65 H12       -18.3004   -8.3953   14.4478 H           1 SU3       0.0237
     66 H13       -16.5682   -8.6367   14.5968 H           1 SU3       0.0237
     67 H14       -17.6689   -9.4338   15.7314 H           1 SU3       0.0237
     68 H15       -11.9170   -9.4999   13.4477 H           1 SU3       0.1839
     69 H16       -11.9398   -9.3345    9.6782 H           1 SU3       0.0312
     70 H17       -13.0168   -6.7104   10.9880 H           1 SU3       0.0279
     71 H18       -13.8464   -8.3791   10.8630 H           1 SU3       0.0279
     72 H19       -11.0123  -18.7935   12.4214 H           1 SU3       0.0373
     73 H20       -13.9957  -17.0025   14.6564 H           1 SU3       0.0361
     74 H21       -10.9534  -21.2965   13.8264 H           1 SU3       0.0557
     75 H22       -11.9001  -22.4557   15.7481 H           1 SU3       0.0599
     76 H23       -13.5764  -21.3918   17.1166 H           1 SU3       0.0557
     77 H24       -15.1736  -19.6455   17.5091 H           1 SU3       0.0426
     78 H25       -15.4789  -18.5329   16.1883 H           1 SU3       0.0426
     79 H26        -9.2220   -8.3146   11.7599 H           1 SU3       0.2148
     80 H27        -5.9578   -6.4418   13.2214 H           1 SU3       0.0559
     81 H28        -7.3301   -9.1353   14.0170 H           1 SU3       0.0285
     82 H29        -5.5244   -8.6304   14.2315 H           1 SU3       0.0285
     83 H30        -5.3233   -8.3705   11.7844 H           1 SU3       0.0285
     84 H31        -7.1333   -8.8742   11.5900 H           1 SU3       0.0285
     85 H32       -13.6500  -17.0086   17.1118 H           1 SU3       0.0287
     86 H33       -13.3567  -18.1906   18.3787 H           1 SU3       0.0287
     87 H34       -14.6347  -16.4637   19.3716 H           1 SU3       0.0267
     88 H35       -15.7183  -17.8417   19.1978 H           1 SU3       0.0267
     89 H36       -16.7135  -16.7631   17.1519 H           1 SU3       0.0271
     90 H37       -15.6149  -15.4067   17.3375 H           1 SU3       0.0271
     91 H38       -18.6680  -15.2472   17.0529 H           1 SU3       0.0617
     92 H39       -19.0324  -14.1359   18.3607 H           1 SU3       0.0617
     93 H40       -17.6135  -16.9618   20.2794 H           1 SU3       0.0236
     94 H41       -18.6113  -17.1564   18.8344 H           1 SU3       0.0236
     95 H42       -19.0033  -15.9168   20.0306 H           1 SU3       0.0236
     96 H43       -15.9287  -13.7489   19.2954 H           1 SU3       0.0236
     97 H44       -16.0864  -14.9787   20.5532 H           1 SU3       0.0236
     98 H45       -17.3904  -13.8277   20.2862 H           1 SU3       0.0236
     99 H46       -17.4496  -10.7252   11.5626 H           1 SU3       0.0237
    100 H47       -16.3379   -9.4933   12.1793 H           1 SU3       0.0237
    101 H48       -18.0500   -9.1088   11.9682 H           1 SU3       0.0237
    102 H49       -19.3933  -11.1754   14.8052 H           1 SU3       0.0237
    103 H50       -19.2562  -11.7559   13.1381 H           1 SU3       0.0237
    104 H51       -19.8194  -10.1116   13.4606 H           1 SU3       0.0237
    105 H52       -15.3470  -13.2744   11.9416 H           1 SU3       0.0553
    106 H53       -15.1104  -13.9982   13.5481 H           1 SU3       0.0553
@<TRIPOS>BOND
     1     1     3   2
     2     1     4   1
     3    21     1  am
     4     4     2   1
     5     2     7  am
     6     2    52   1
     7     4     5   1
     8     5     6   1
     9     6    52   1
    10     6    53   1
    11     7     8   2
    12     7     9   1
    13     9    10   1
    14     9    13   1
    15    10    11  am
    16    11    12   1
    17    11    14   2
    18    12    47   1
    19    13    20   1
    20    13    50   1
    21    13    51   1
    22    15    16   2
    23    15    17  am
    24    53    15   1
    25    17    26   1
    26    17    29   1
    27    18    19   1
    28    24    18   1
    29    22    21   1
    30    22    23   1
    31    22    24   1
    32    22    25   1
    33    23    35  am
    34    23    36   2
    35    24    25   1
    36    26    27   2
    37    27    28  ar
    38    27    30  ar
    39    28    29   2
    40    28    33  ar
    41    30    31  ar
    42    31    32  ar
    43    32    33  ar
    44    33    34   1
    45    34    43   1
    46    35    37  am
    47    37    38   1
    48    37    39   2
    49    37    40   2
    50    38    41   1
    51    38    42   1
    52    41    42   1
    53    43    44   1
    54    44    45   1
    55    45    46   1
    56    46    47   1
    57    46    48   1
    58    46    49   1
    59     4    54   1
    60     5    55   1
    61     5    56   1
    62     6    57   1
    63     9    58   1
    64    10    59   1
    65    18    60   1
    66    18    61   1
    67    19    62   1
    68    19    63   1
    69    19    64   1
    70    20    65   1
    71    20    66   1
    72    20    67   1
    73    21    68   1
    74    24    69   1
    75    25    70   1
    76    25    71   1
    77    26    72   1
    78    29    73   1
    79    30    74   1
    80    31    75   1
    81    32    76   1
    82    34    77   1
    83    34    78   1
    84    35    79   1
    85    38    80   1
    86    41    81   1
    87    41    82   1
    88    42    83   1
    89    42    84   1
    90    43    85   1
    91    43    86   1
    92    44    87   1
    93    44    88   1
    94    45    89   1
    95    45    90   1
    96    47    91   1
    97    47    92   1
    98    48    93   1
    99    48    94   1
   100    48    95   1
   101    49    96   1
   102    49    97   1
   103    49    98   1
   104    50    99   1
   105    50   100   1
   106    50   101   1
   107    51   102   1
   108    51   103   1
   109    51   104   1
   110    52   105   1
   111    52   106   1
@<TRIPOS>SUBSTRUCTURE
     1  SU3      1

