@<TRIPOS>MOLECULE
3su5_ligand_079
   106   111
SMALL
GAST_HUCK
****
This file was generated by PARSER (from files_GN.cpp)

@<TRIPOS>ATOM
      1 C         -12.5967  -11.8278   12.0734 C.2         1 SU3       0.2013
      2 N         -12.2453  -14.1305   12.7547 N.am        1 SU3      -0.2469
      3 O         -11.3958  -11.7640   11.8392 O.2         1 SU3      -0.3947
      4 CA        -13.2031  -13.0638   12.5623 C.3         1 SU3       0.1363
      5 CB        -13.8684  -12.8979   13.9514 C.3         1 SU3       0.0206
      6 CG        -12.7952  -13.3458   14.9553 C.3         1 SU3       0.1158
      7 CAF       -11.8010  -14.9257   11.7589 C.2         1 SU3       0.2070
      8 OAG       -12.3582  -14.8595   10.6681 O.2         1 SU3      -0.3942
      9 CAH       -10.7420  -15.9364   11.8907 C.3         1 SU3       0.1378
     10 NAI       -11.4038  -17.1991   12.0942 N.am        1 SU3      -0.2407
     11 CAJ       -11.2152  -18.0720   13.1100 C.2         1 SU3       0.3218
     12 OAK       -11.8820  -19.2544   13.0401 O.3         1 SU3      -0.2633
     13 CAL        -9.6677  -16.0130   10.7158 C.3         1 SU3       0.0025
     14 OAM       -10.3409  -17.8200   14.1121 O.2         1 SU3      -0.3774
     15 CAO       -14.0678  -13.5652   17.1282 C.2         1 SU3       0.4317
     16 OAP       -14.2453  -12.2316   17.2735 O.2         1 SU3      -0.3166
     17 NAQ       -14.6288  -14.4497   17.9904 N.am        1 SU3      -0.2080
     18 CAR       -10.9983   -8.4215    9.7746 C.3         1 SU3      -0.0516
     19 CAS       -10.2268   -8.7453    8.4776 C.3         1 SU3      -0.0651
     20 CAT       -10.1087  -16.9591    9.5450 C.3         1 SU3      -0.0558
     21 NAV       -13.3653  -10.7600   11.8737 N.am        1 SU3      -0.2737
     22 CAX       -12.9039   -9.4794   11.4167 C.3         1 SU3       0.1374
     23 CAY       -12.8460   -8.4237   12.4203 C.2         1 SU3       0.2444
     24 CAZ       -12.1062   -9.4686   10.0793 C.3         1 SU3      -0.0066
     25 CBA       -13.5744   -9.0301   10.0981 C.3         1 SU3      -0.0152
     26 CBB       -15.4024  -14.1614   19.0605 C.2         1 SU3       0.0383
     27 CBC       -15.8194  -15.3528   19.6488 C.ar        1 SU3      -0.0374
     28 CBD       -15.2839  -16.3940   18.8943 C.ar        1 SU3      -0.0293
     29 CBE       -14.5351  -15.7947   17.8857 C.2         1 SU3       0.0366
     30 CBF       -16.6226  -15.6127   20.7720 C.ar        1 SU3      -0.0689
     31 CBG       -16.8773  -16.9529   21.1203 C.ar        1 SU3      -0.0688
     32 CBH       -16.3458  -18.0102   20.3438 C.ar        1 SU3      -0.0606
     33 CBI       -15.5430  -17.7503   19.2045 C.ar        1 SU3      -0.0432
     34 CBJ       -15.0027  -18.8533   18.3614 C.3         1 SU3      -0.0194
     35 NBK       -13.8399   -8.2944   13.2890 N.am        1 SU3      -0.1552
     36 OBL       -11.8749   -7.6802   12.4687 O.2         1 SU3      -0.3404
     37 SBM       -13.9610   -7.0600   14.4333 S.o2        1 SU3       0.0645
     38 CBN       -12.9177   -7.1462   15.9117 C.3         1 SU3       0.1004
     39 OBO       -13.9812   -5.6290   13.7372 O.2         1 SU3      -0.1503
     40 OBP       -15.4427   -7.1927   14.9997 O.2         1 SU3      -0.1503
     41 CBQ       -11.4456   -7.5483   15.7419 C.3         1 SU3      -0.0268
     42 CBR       -11.8058   -6.0961   16.0862 C.3         1 SU3      -0.0268
     43 CBS       -15.7316  -18.9641   16.9912 C.3         1 SU3      -0.0433
     44 CBT       -15.1949  -20.0868   16.0578 C.3         1 SU3      -0.0507
     45 CBU       -13.8098  -19.7890   15.4032 C.3         1 SU3      -0.0453
     46 CBV       -13.2121  -20.8784   14.4352 C.3         1 SU3      -0.0072
     47 CBW       -11.8115  -20.3936   13.9153 C.3         1 SU3       0.0824
     48 CBX       -13.0006  -22.2331   15.1926 C.3         1 SU3      -0.0574
     49 CBY       -14.1490  -21.1315   13.2087 C.3         1 SU3      -0.0574
     50 CBZ        -9.3595  -14.6043   10.1006 C.3         1 SU3      -0.0558
     51 CCA        -8.3234  -16.5770   11.3004 C.3         1 SU3      -0.0558
     52 CD1       -11.9217  -14.3196   14.1393 C.3         1 SU3       0.0677
     53 OD2       -13.3597  -14.0398   16.0721 O.3         1 SU3      -0.2338
     54 H1        -13.9805  -13.3670   11.8524 H           1 SU3       0.0803
     55 H2        -14.7300  -13.5701   14.0129 H           1 SU3       0.0342
     56 H3        -14.2135  -11.8769   14.1545 H           1 SU3       0.0342
     57 H4        -12.2031  -12.4874   15.2860 H           1 SU3       0.0673
     58 H5        -10.1741  -15.6838   12.7879 H           1 SU3       0.0805
     59 H6        -12.0135  -17.4827   11.3954 H           1 SU3       0.1899
     60 H7        -11.4199   -7.4186    9.6857 H           1 SU3       0.0265
     61 H8        -10.2857   -8.4217   10.6018 H           1 SU3       0.0265
     62 H9         -9.4834   -7.9696    8.2833 H           1 SU3       0.0230
     63 H10       -10.9104   -8.7928    7.6268 H           1 SU3       0.0230
     64 H11        -9.7107   -9.7023    8.5721 H           1 SU3       0.0230
     65 H12        -9.3832  -16.9358    8.7291 H           1 SU3       0.0237
     66 H13       -11.0758  -16.6599    9.1425 H           1 SU3       0.0237
     67 H14       -10.1890  -17.9949    9.8837 H           1 SU3       0.0237
     68 H15       -14.3108  -10.8358   12.0929 H           1 SU3       0.1839
     69 H16       -11.9535  -10.4651    9.6548 H           1 SU3       0.0312
     70 H17       -13.7535   -7.9620    9.9573 H           1 SU3       0.0279
     71 H18       -14.2571   -9.7383    9.6237 H           1 SU3       0.0279
     72 H19       -15.6542  -13.2264   19.3920 H           1 SU3       0.0373
     73 H20       -14.0112  -16.3056   17.1705 H           1 SU3       0.0361
     74 H21       -17.0102  -14.8466   21.3261 H           1 SU3       0.0557
     75 H22       -17.4569  -17.1654   21.9349 H           1 SU3       0.0599
     76 H23       -16.5619  -18.9733   20.6128 H           1 SU3       0.0557
     77 H24       -15.1016  -19.8094   18.8816 H           1 SU3       0.0426
     78 H25       -13.9360  -18.6813   18.2114 H           1 SU3       0.0426
     79 H26       -14.5784   -8.9253   13.2466 H           1 SU3       0.2148
     80 H27       -13.3728   -7.5025   16.8401 H           1 SU3       0.0559
     81 H28       -11.0706   -7.6967   14.7263 H           1 SU3       0.0285
     82 H29       -11.0338   -8.1405   16.5667 H           1 SU3       0.0285
     83 H30       -11.5846   -5.7843   17.1121 H           1 SU3       0.0285
     84 H31       -11.6840   -5.3724   15.2780 H           1 SU3       0.0285
     85 H32       -15.6843  -18.0141   16.4543 H           1 SU3       0.0287
     86 H33       -16.7884  -19.1692   17.1896 H           1 SU3       0.0287
     87 H34       -15.9318  -20.2247   15.2630 H           1 SU3       0.0267
     88 H35       -15.1502  -21.0143   16.6309 H           1 SU3       0.0267
     89 H36       -13.0891  -19.6193   16.2064 H           1 SU3       0.0271
     90 H37       -13.9000  -18.8490   14.8529 H           1 SU3       0.0271
     91 H38       -11.1524  -20.1916   14.7618 H           1 SU3       0.0617
     92 H39       -11.3441  -21.1893   13.3308 H           1 SU3       0.0617
     93 H40       -13.9531  -22.6773   15.4897 H           1 SU3       0.0236
     94 H41       -12.3981  -22.0836   16.0921 H           1 SU3       0.0236
     95 H42       -12.4886  -22.9616   14.5589 H           1 SU3       0.0236
     96 H43       -14.3815  -20.1946   12.6984 H           1 SU3       0.0236
     97 H44       -15.0895  -21.5928   13.5153 H           1 SU3       0.0236
     98 H45       -13.6731  -21.8023   12.4885 H           1 SU3       0.0236
     99 H46        -9.1407  -13.8802   10.8847 H           1 SU3       0.0237
    100 H47       -10.2061  -14.2310    9.5247 H           1 SU3       0.0237
    101 H48        -8.5029  -14.6447    9.4253 H           1 SU3       0.0237
    102 H49        -8.4773  -17.5552   11.7630 H           1 SU3       0.0237
    103 H50        -7.9175  -15.9044   12.0623 H           1 SU3       0.0237
    104 H51        -7.5647  -16.6915   10.5210 H           1 SU3       0.0237
    105 H52       -10.8671  -14.1198   14.3393 H           1 SU3       0.0553
    106 H53       -12.1500  -15.3522   14.4182 H           1 SU3       0.0553
@<TRIPOS>BOND
     1     1     3   2
     2     1     4   1
     3    21     1  am
     4     4     2   1
     5     2     7  am
     6     2    52   1
     7     4     5   1
     8     5     6   1
     9     6    52   1
    10     6    53   1
    11     7     8   2
    12     7     9   1
    13     9    10   1
    14     9    13   1
    15    10    11  am
    16    11    12   1
    17    11    14   2
    18    12    47   1
    19    13    20   1
    20    13    50   1
    21    13    51   1
    22    15    16   2
    23    15    17  am
    24    53    15   1
    25    17    26   1
    26    17    29   1
    27    18    19   1
    28    24    18   1
    29    22    21   1
    30    22    23   1
    31    22    24   1
    32    22    25   1
    33    23    35  am
    34    23    36   2
    35    24    25   1
    36    26    27   2
    37    27    28  ar
    38    27    30  ar
    39    28    29   2
    40    28    33  ar
    41    30    31  ar
    42    31    32  ar
    43    32    33  ar
    44    33    34   1
    45    34    43   1
    46    35    37  am
    47    37    38   1
    48    37    39   2
    49    37    40   2
    50    38    41   1
    51    38    42   1
    52    41    42   1
    53    43    44   1
    54    44    45   1
    55    45    46   1
    56    46    47   1
    57    46    48   1
    58    46    49   1
    59     4    54   1
    60     5    55   1
    61     5    56   1
    62     6    57   1
    63     9    58   1
    64    10    59   1
    65    18    60   1
    66    18    61   1
    67    19    62   1
    68    19    63   1
    69    19    64   1
    70    20    65   1
    71    20    66   1
    72    20    67   1
    73    21    68   1
    74    24    69   1
    75    25    70   1
    76    25    71   1
    77    26    72   1
    78    29    73   1
    79    30    74   1
    80    31    75   1
    81    32    76   1
    82    34    77   1
    83    34    78   1
    84    35    79   1
    85    38    80   1
    86    41    81   1
    87    41    82   1
    88    42    83   1
    89    42    84   1
    90    43    85   1
    91    43    86   1
    92    44    87   1
    93    44    88   1
    94    45    89   1
    95    45    90   1
    96    47    91   1
    97    47    92   1
    98    48    93   1
    99    48    94   1
   100    48    95   1
   101    49    96   1
   102    49    97   1
   103    49    98   1
   104    50    99   1
   105    50   100   1
   106    50   101   1
   107    51   102   1
   108    51   103   1
   109    51   104   1
   110    52   105   1
   111    52   106   1
@<TRIPOS>SUBSTRUCTURE
     1  SU3      1

