@<TRIPOS>MOLECULE
3su5_ligand_005
   106   111
SMALL
GAST_HUCK
****
This file was generated by PARSER (from files_GN.cpp)

@<TRIPOS>ATOM
      1 C         -15.0642   -7.6325   13.5638 C.2         1 SU3       0.2013
      2 N         -13.3874   -8.8177   12.2832 N.am        1 SU3      -0.2469
      3 O         -15.6476   -7.6544   14.6310 O.2         1 SU3      -0.3947
      4 CA        -14.7116   -8.8751   12.8588 C.3         1 SU3       0.1363
      5 CB        -14.6388  -10.1462   13.7385 C.3         1 SU3       0.0206
      6 CG        -13.1839  -10.1931   14.2251 C.3         1 SU3       0.1158
      7 CAF       -13.1058   -8.3097   11.0649 C.2         1 SU3       0.2070
      8 OAG       -14.0620   -8.0285   10.3510 O.2         1 SU3      -0.3942
      9 CAH       -11.7630   -8.1518   10.4748 C.3         1 SU3       0.1378
     10 NAI       -11.5962   -9.2301    9.5332 N.am        1 SU3      -0.2407
     11 CAJ       -10.6251  -10.1744    9.5566 C.2         1 SU3       0.3218
     12 OAK       -10.5942  -11.0667    8.5324 O.3         1 SU3      -0.2633
     13 CAL       -11.4201   -6.7415    9.8258 C.3         1 SU3       0.0025
     14 OAM        -9.6701  -10.1959   10.5129 O.2         1 SU3      -0.3774
     15 CAO       -13.0214  -12.4338   15.3511 C.2         1 SU3       0.4317
     16 OAP       -13.7851  -12.0555   16.4063 O.2         1 SU3      -0.3166
     17 NAQ       -12.6120  -13.7160   15.2071 N.am        1 SU3      -0.2080
     18 CAR       -14.9146   -2.6200   12.5279 C.3         1 SU3      -0.0516
     19 CAS       -14.7882   -1.8486   11.1981 C.3         1 SU3      -0.0651
     20 CAT       -11.5249   -5.6118   10.9038 C.3         1 SU3      -0.0558
     21 NAV       -14.8278   -6.4697   12.9611 N.am        1 SU3      -0.2737
     22 CAX       -15.1974   -5.1714   13.4366 C.3         1 SU3       0.1374
     23 CAY       -14.6242   -4.7402   14.6996 C.2         1 SU3       0.2444
     24 CAZ       -15.2499   -4.1223   12.2964 C.3         1 SU3      -0.0066
     25 CBA       -16.5514   -4.6594   12.9321 C.3         1 SU3      -0.0152
     26 CBB       -12.8523  -14.7451   16.0549 C.2         1 SU3       0.0383
     27 CBC       -12.3588  -15.9125   15.4897 C.ar        1 SU3      -0.0374
     28 CBD       -11.8020  -15.5771   14.2572 C.ar        1 SU3      -0.0293
     29 CBE       -11.9476  -14.1998   14.1322 C.2         1 SU3       0.0366
     30 CBF       -12.3801  -17.2455   15.9345 C.ar        1 SU3      -0.0689
     31 CBG       -11.8347  -18.2398   15.0976 C.ar        1 SU3      -0.0688
     32 CBH       -11.2833  -17.9008   13.8420 C.ar        1 SU3      -0.0606
     33 CBI       -11.2662  -16.5556   13.3900 C.ar        1 SU3      -0.0432
     34 CBJ       -10.7449  -16.1945   12.0431 C.3         1 SU3      -0.0194
     35 NBK       -13.3042   -4.7218   14.8218 N.am        1 SU3      -0.1552
     36 OBL       -15.3692   -4.5068   15.6416 O.2         1 SU3      -0.3404
     37 SBM       -12.4448   -4.4417   16.2480 S.o2        1 SU3       0.0645
     38 CBN       -11.9579   -5.8977   17.1954 C.3         1 SU3       0.1004
     39 OBO       -11.1167   -3.6841   15.8451 O.2         1 SU3      -0.1503
     40 OBP       -13.2084   -3.4093   17.1901 O.2         1 SU3      -0.1503
     41 CBQ       -13.0689   -6.7832   17.7783 C.3         1 SU3      -0.0268
     42 CBR       -12.2386   -7.2794   16.5890 C.3         1 SU3      -0.0268
     43 CBS       -11.8851  -15.8375   11.0440 C.3         1 SU3      -0.0433
     44 CBT       -11.4016  -15.4246    9.6263 C.3         1 SU3      -0.0507
     45 CBU       -10.7704  -14.0005    9.5366 C.3         1 SU3      -0.0453
     46 CBV       -10.2579  -13.5265    8.1239 C.3         1 SU3      -0.0072
     47 CBW        -9.6265  -12.0942    8.2610 C.3         1 SU3       0.0824
     48 CBX        -9.1490  -14.4921    7.5854 C.3         1 SU3      -0.0574
     49 CBY       -11.4233  -13.4660    7.0822 C.3         1 SU3      -0.0574
     50 CBZ        -9.9338   -6.7581    9.3129 C.3         1 SU3      -0.0558
     51 CCA       -12.3272   -6.3599    8.6055 C.3         1 SU3      -0.0558
     52 CD1       -12.4129   -9.4821   13.0963 C.3         1 SU3       0.0677
     53 OD2       -12.7222  -11.5357   14.3758 O.3         1 SU3      -0.2338
     54 H1        -15.4782   -9.0438   12.0992 H           1 SU3       0.0803
     55 H2        -14.8465  -11.0224   13.1137 H           1 SU3       0.0342
     56 H3        -15.3444  -10.1512   14.5714 H           1 SU3       0.0342
     57 H4        -13.0730   -9.6442   15.1577 H           1 SU3       0.0673
     58 H5        -11.0304   -8.2698   11.2725 H           1 SU3       0.0805
     59 H6        -12.2276   -9.2693    8.7937 H           1 SU3       0.1899
     60 H7        -15.6757   -2.1435   13.1349 H           1 SU3       0.0265
     61 H8        -13.9649   -2.5376   13.0505 H           1 SU3       0.0265
     62 H9        -14.6354   -0.7866   11.3980 H           1 SU3       0.0230
     63 H10       -15.6917   -1.9676   10.5933 H           1 SU3       0.0230
     64 H11       -13.9314   -2.2222   10.6252 H           1 SU3       0.0230
     65 H12       -11.2020   -4.6476   10.4984 H           1 SU3       0.0237
     66 H13       -10.8994   -5.8367   11.7714 H           1 SU3       0.0237
     67 H14       -12.5521   -5.4985   11.2475 H           1 SU3       0.0237
     68 H15       -14.3859   -6.4969   12.1024 H           1 SU3       0.1839
     69 H16       -15.0708   -4.5253   11.2939 H           1 SU3       0.0312
     70 H17       -17.0949   -4.0055   13.6152 H           1 SU3       0.0279
     71 H18       -17.1261   -5.3544   12.3166 H           1 SU3       0.0279
     72 H19       -13.3478  -14.6873   16.9485 H           1 SU3       0.0373
     73 H20       -11.6451  -13.6532   13.3225 H           1 SU3       0.0361
     74 H21       -12.7929  -17.4888   16.8375 H           1 SU3       0.0557
     75 H22       -11.8549  -19.2181   15.3955 H           1 SU3       0.0599
     76 H23       -10.9121  -18.6484   13.2514 H           1 SU3       0.0557
     77 H24       -10.1680  -17.0248   11.6237 H           1 SU3       0.0426
     78 H25       -10.0563  -15.3543   12.1517 H           1 SU3       0.0426
     79 H26       -12.7790   -4.9491   14.0370 H           1 SU3       0.2148
     80 H27       -11.0730   -5.8299   17.8243 H           1 SU3       0.0559
     81 H28       -14.0972   -6.4928   17.5554 H           1 SU3       0.0285
     82 H29       -12.8354   -7.2259   18.7493 H           1 SU3       0.0285
     83 H30       -11.5004   -8.0527   16.8126 H           1 SU3       0.0285
     84 H31       -12.7610   -7.2998   15.6331 H           1 SU3       0.0285
     85 H32       -12.5103  -15.0377   11.4461 H           1 SU3       0.0287
     86 H33       -12.5223  -16.7215   10.9375 H           1 SU3       0.0287
     87 H34       -12.2698  -15.4606    8.9655 H           1 SU3       0.0267
     88 H35       -10.6906  -16.1752    9.2798 H           1 SU3       0.0267
     89 H36        -9.9306  -13.9601   10.2346 H           1 SU3       0.0271
     90 H37       -11.5150  -13.2840    9.8954 H           1 SU3       0.0271
     91 H38        -8.8394  -12.1057    9.0210 H           1 SU3       0.0617
     92 H39        -9.1494  -11.8119    7.3172 H           1 SU3       0.0617
     93 H40        -9.5542  -15.4816    7.3705 H           1 SU3       0.0236
     94 H41        -8.3451  -14.6025    8.3158 H           1 SU3       0.0236
     95 H42        -8.7163  -14.1122    6.6577 H           1 SU3       0.0236
     96 H43       -12.2519  -12.8642    7.4607 H           1 SU3       0.0236
     97 H44       -11.8042  -14.4624    6.8557 H           1 SU3       0.0236
     98 H45       -11.0810  -13.0219    6.1442 H           1 SU3       0.0236
     99 H46        -9.7996   -7.4991    8.5203 H           1 SU3       0.0237
    100 H47        -9.2396   -7.0007   10.1232 H           1 SU3       0.0237
    101 H48        -9.6431   -5.7840    8.9059 H           1 SU3       0.0237
    102 H49       -13.3581   -6.1833    8.8994 H           1 SU3       0.0237
    103 H50       -12.3120   -7.1488    7.8514 H           1 SU3       0.0237
    104 H51       -11.9773   -5.4361    8.1364 H           1 SU3       0.0237
    105 H52       -11.7056   -8.7549   13.5100 H           1 SU3       0.0553
    106 H53       -11.8669  -10.2212   12.4958 H           1 SU3       0.0553
@<TRIPOS>BOND
     1     1     3   2
     2     1     4   1
     3    21     1  am
     4     4     2   1
     5     2     7  am
     6     2    52   1
     7     4     5   1
     8     5     6   1
     9     6    52   1
    10     6    53   1
    11     7     8   2
    12     7     9   1
    13     9    10   1
    14     9    13   1
    15    10    11  am
    16    11    12   1
    17    11    14   2
    18    12    47   1
    19    13    20   1
    20    13    50   1
    21    13    51   1
    22    15    16   2
    23    15    17  am
    24    53    15   1
    25    17    26   1
    26    17    29   1
    27    18    19   1
    28    24    18   1
    29    22    21   1
    30    22    23   1
    31    22    24   1
    32    22    25   1
    33    23    35  am
    34    23    36   2
    35    24    25   1
    36    26    27   2
    37    27    28  ar
    38    27    30  ar
    39    28    29   2
    40    28    33  ar
    41    30    31  ar
    42    31    32  ar
    43    32    33  ar
    44    33    34   1
    45    34    43   1
    46    35    37  am
    47    37    38   1
    48    37    39   2
    49    37    40   2
    50    38    41   1
    51    38    42   1
    52    41    42   1
    53    43    44   1
    54    44    45   1
    55    45    46   1
    56    46    47   1
    57    46    48   1
    58    46    49   1
    59     4    54   1
    60     5    55   1
    61     5    56   1
    62     6    57   1
    63     9    58   1
    64    10    59   1
    65    18    60   1
    66    18    61   1
    67    19    62   1
    68    19    63   1
    69    19    64   1
    70    20    65   1
    71    20    66   1
    72    20    67   1
    73    21    68   1
    74    24    69   1
    75    25    70   1
    76    25    71   1
    77    26    72   1
    78    29    73   1
    79    30    74   1
    80    31    75   1
    81    32    76   1
    82    34    77   1
    83    34    78   1
    84    35    79   1
    85    38    80   1
    86    41    81   1
    87    41    82   1
    88    42    83   1
    89    42    84   1
    90    43    85   1
    91    43    86   1
    92    44    87   1
    93    44    88   1
    94    45    89   1
    95    45    90   1
    96    47    91   1
    97    47    92   1
    98    48    93   1
    99    48    94   1
   100    48    95   1
   101    49    96   1
   102    49    97   1
   103    49    98   1
   104    50    99   1
   105    50   100   1
   106    50   101   1
   107    51   102   1
   108    51   103   1
   109    51   104   1
   110    52   105   1
   111    52   106   1
@<TRIPOS>SUBSTRUCTURE
     1  SU3      1

