@<TRIPOS>MOLECULE
3su5_ligand_027
   106   111
SMALL
GAST_HUCK
****
This file was generated by PARSER (from files_GN.cpp)

@<TRIPOS>ATOM
      1 C         -16.5189   -9.6096   13.9016 C.2         1 SU3       0.2013
      2 N         -14.1766   -8.9060   13.5940 N.am        1 SU3      -0.2469
      3 O         -16.6507   -8.7554   14.7721 O.2         1 SU3      -0.3947
      4 CA        -15.1808   -9.9378   13.4073 C.3         1 SU3       0.1363
      5 CB        -14.6290  -11.1917   14.1273 C.3         1 SU3       0.0206
      6 CG        -13.1168  -10.9339   14.2471 C.3         1 SU3       0.1158
      7 CAF       -14.2958   -7.6568   13.1015 C.2         1 SU3       0.2070
      8 OAG       -15.2159   -7.4418   12.3187 O.2         1 SU3      -0.3942
      9 CAH       -13.4156   -6.5110   13.3878 C.3         1 SU3       0.1378
     10 NAI       -12.8594   -6.0764   12.1317 N.am        1 SU3      -0.2407
     11 CAJ       -11.5514   -6.0771   11.7851 C.2         1 SU3       0.3218
     12 OAK       -11.2341   -5.5586   10.5688 O.3         1 SU3      -0.2633
     13 CAL       -14.0850   -5.3086   14.1779 C.3         1 SU3       0.0025
     14 OAM       -10.5837   -6.5410   12.6140 O.2         1 SU3      -0.3774
     15 CAO       -12.1418  -12.7089   12.7462 C.2         1 SU3       0.4317
     16 OAP       -12.6564  -13.7158   13.4946 O.2         1 SU3      -0.3166
     17 NAQ       -11.3582  -12.9830   11.6727 N.am        1 SU3      -0.2080
     18 CAR       -20.6609   -7.9128   14.1675 C.3         1 SU3      -0.0516
     19 CAS       -21.7544   -7.3848   13.2145 C.3         1 SU3      -0.0651
     20 CAT       -15.3550   -4.7158   13.4761 C.3         1 SU3      -0.0558
     21 NAV       -17.5696  -10.2769   13.4402 N.am        1 SU3      -0.2737
     22 CAX       -18.9237  -10.0170   13.8161 C.3         1 SU3       0.1374
     23 CAY       -19.4513  -10.7981   14.9121 C.2         1 SU3       0.2444
     24 CAZ       -19.5129   -8.6334   13.4090 C.3         1 SU3      -0.0066
     25 CBA       -19.8691   -9.8954   12.6036 C.3         1 SU3      -0.0152
     26 CBB       -11.0265  -14.2164   11.2238 C.2         1 SU3       0.0383
     27 CBC       -10.1543  -14.0866   10.1493 C.ar        1 SU3      -0.0374
     28 CBD        -9.9647  -12.7233    9.9331 C.ar        1 SU3      -0.0293
     29 CBE       -10.7334  -12.0687   10.8937 C.2         1 SU3       0.0366
     30 CBF        -9.5026  -15.0499    9.3628 C.ar        1 SU3      -0.0689
     31 CBG        -8.6399  -14.6083    8.3402 C.ar        1 SU3      -0.0688
     32 CBH        -8.4428  -13.2276    8.1180 C.ar        1 SU3      -0.0606
     33 CBI        -9.1051  -12.2540    8.9100 C.ar        1 SU3      -0.0432
     34 CBJ        -8.9033  -10.8004    8.6681 C.3         1 SU3      -0.0194
     35 NBK       -19.5076  -10.2558   16.1167 N.am        1 SU3      -0.1552
     36 OBL       -19.8099  -11.9507   14.7022 O.2         1 SU3      -0.3404
     37 SBM       -20.2227  -10.9628   17.4700 S.o2        1 SU3       0.0645
     38 CBN       -22.0097  -11.1997   17.2803 C.3         1 SU3       0.1004
     39 OBO       -19.4748  -12.3179   17.8315 O.2         1 SU3      -0.1503
     40 OBP       -19.9282   -9.9680   18.6734 O.2         1 SU3      -0.1503
     41 CBQ       -22.9544  -10.8641   18.4435 C.3         1 SU3      -0.0268
     42 CBR       -22.8723   -9.9316   17.2255 C.3         1 SU3      -0.0268
     43 CBS       -10.1214  -10.1561    7.9489 C.3         1 SU3      -0.0433
     44 CBT        -9.9421   -8.6514    7.6047 C.3         1 SU3      -0.0507
     45 CBU       -10.0121   -7.7016    8.8379 C.3         1 SU3      -0.0453
     46 CBV        -9.8511   -6.1563    8.5830 C.3         1 SU3      -0.0072
     47 CBW        -9.9391   -5.4173    9.9631 C.3         1 SU3       0.0824
     48 CBX        -8.4603   -5.8318    7.9460 C.3         1 SU3      -0.0574
     49 CBY       -10.9747   -5.6111    7.6413 C.3         1 SU3      -0.0574
     50 CBZ       -14.4917   -5.7832   15.6124 C.3         1 SU3      -0.0558
     51 CCA       -13.0496   -4.1427   14.3448 C.3         1 SU3      -0.0558
     52 CD1       -13.0340   -9.3959   14.3038 C.3         1 SU3       0.0677
     53 OD2       -12.3746  -11.4181   13.1154 O.3         1 SU3      -0.2338
     54 H1        -15.2419  -10.1428   12.3311 H           1 SU3       0.0803
     55 H2        -14.8515  -12.1016   13.5649 H           1 SU3       0.0342
     56 H3        -15.0442  -11.2985   15.1359 H           1 SU3       0.0342
     57 H4        -12.7070  -11.3738   15.1610 H           1 SU3       0.0673
     58 H5        -12.5968   -6.8447   14.0256 H           1 SU3       0.0805
     59 H6        -13.4821   -5.7269   11.4741 H           1 SU3       0.1899
     60 H7        -21.1308   -8.5684   14.9014 H           1 SU3       0.0265
     61 H8        -20.2216   -7.0672   14.7065 H           1 SU3       0.0265
     62 H9        -22.4917   -6.8243   13.7871 H           1 SU3       0.0230
     63 H10       -22.2670   -8.2125   12.7204 H           1 SU3       0.0230
     64 H11       -21.3136   -6.7321   12.4582 H           1 SU3       0.0230
     65 H12       -15.7067   -3.8173   13.9897 H           1 SU3       0.0237
     66 H13       -16.1817   -5.4278   13.4811 H           1 SU3       0.0237
     67 H14       -15.1365   -4.4485   12.4404 H           1 SU3       0.0237
     68 H15       -17.4127  -10.9815   12.7898 H           1 SU3       0.1839
     69 H16       -18.8240   -7.9778   12.8643 H           1 SU3       0.0312
     70 H17       -20.8913  -10.2600   12.7287 H           1 SU3       0.0279
     71 H18       -19.4289   -9.9174   11.6047 H           1 SU3       0.0279
     72 H19       -11.3340  -15.1089   11.6200 H           1 SU3       0.0373
     73 H20       -10.7842  -11.0535   11.0080 H           1 SU3       0.0361
     74 H21        -9.6443  -16.0472    9.5308 H           1 SU3       0.0557
     75 H22        -8.1529  -15.2916    7.7567 H           1 SU3       0.0599
     76 H23        -7.8133  -12.9373    7.3649 H           1 SU3       0.0557
     77 H24        -8.0121  -10.6389    8.0544 H           1 SU3       0.0426
     78 H25        -8.7178  -10.3105    9.6262 H           1 SU3       0.0426
     79 H26       -19.2162   -9.3362   16.2054 H           1 SU3       0.2148
     80 H27       -22.3458  -11.9900   16.6073 H           1 SU3       0.0559
     81 H28       -22.5062  -10.4761   19.3607 H           1 SU3       0.0285
     82 H29       -23.8636  -11.4623   18.5081 H           1 SU3       0.0285
     83 H30       -23.7345   -9.9677   16.5559 H           1 SU3       0.0285
     84 H31       -22.3776   -8.9767   17.4038 H           1 SU3       0.0285
     85 H32       -11.0226  -10.2759    8.5547 H           1 SU3       0.0287
     86 H33       -10.2861  -10.6948    7.0113 H           1 SU3       0.0287
     87 H34       -10.7382   -8.3781    6.9092 H           1 SU3       0.0267
     88 H35        -8.9903   -8.5263    7.0859 H           1 SU3       0.0267
     89 H36        -9.2395   -8.0094    9.5459 H           1 SU3       0.0271
     90 H37       -10.9753   -7.8778    9.3259 H           1 SU3       0.0271
     91 H38        -9.1519   -5.7779   10.6302 H           1 SU3       0.0617
     92 H39        -9.7762   -4.3499    9.8263 H           1 SU3       0.0617
     93 H40        -8.3662   -6.2704    6.9509 H           1 SU3       0.0236
     94 H41        -7.6486   -6.2158    8.5670 H           1 SU3       0.0236
     95 H42        -8.3223   -4.7537    7.8407 H           1 SU3       0.0236
     96 H43       -11.9638   -5.8844    8.0153 H           1 SU3       0.0236
     97 H44       -10.8719   -6.0109    6.6307 H           1 SU3       0.0236
     98 H45       -10.9256   -4.5221    7.5718 H           1 SU3       0.0236
     99 H46       -13.6271   -6.1682   16.1578 H           1 SU3       0.0237
    100 H47       -15.2327   -6.5775   15.5532 H           1 SU3       0.0237
    101 H48       -14.9216   -4.9644   16.1945 H           1 SU3       0.0237
    102 H49       -12.7856   -3.7147   13.3743 H           1 SU3       0.0237
    103 H50       -12.1323   -4.5012   14.8186 H           1 SU3       0.0237
    104 H51       -13.4539   -3.3349   14.9620 H           1 SU3       0.0237
    105 H52       -13.0686   -9.0414   15.3380 H           1 SU3       0.0553
    106 H53       -12.0948   -9.0748   13.8437 H           1 SU3       0.0553
@<TRIPOS>BOND
     1     1     3   2
     2     1     4   1
     3    21     1  am
     4     4     2   1
     5     2     7  am
     6     2    52   1
     7     4     5   1
     8     5     6   1
     9     6    52   1
    10     6    53   1
    11     7     8   2
    12     7     9   1
    13     9    10   1
    14     9    13   1
    15    10    11  am
    16    11    12   1
    17    11    14   2
    18    12    47   1
    19    13    20   1
    20    13    50   1
    21    13    51   1
    22    15    16   2
    23    15    17  am
    24    53    15   1
    25    17    26   1
    26    17    29   1
    27    18    19   1
    28    24    18   1
    29    22    21   1
    30    22    23   1
    31    22    24   1
    32    22    25   1
    33    23    35  am
    34    23    36   2
    35    24    25   1
    36    26    27   2
    37    27    28  ar
    38    27    30  ar
    39    28    29   2
    40    28    33  ar
    41    30    31  ar
    42    31    32  ar
    43    32    33  ar
    44    33    34   1
    45    34    43   1
    46    35    37  am
    47    37    38   1
    48    37    39   2
    49    37    40   2
    50    38    41   1
    51    38    42   1
    52    41    42   1
    53    43    44   1
    54    44    45   1
    55    45    46   1
    56    46    47   1
    57    46    48   1
    58    46    49   1
    59     4    54   1
    60     5    55   1
    61     5    56   1
    62     6    57   1
    63     9    58   1
    64    10    59   1
    65    18    60   1
    66    18    61   1
    67    19    62   1
    68    19    63   1
    69    19    64   1
    70    20    65   1
    71    20    66   1
    72    20    67   1
    73    21    68   1
    74    24    69   1
    75    25    70   1
    76    25    71   1
    77    26    72   1
    78    29    73   1
    79    30    74   1
    80    31    75   1
    81    32    76   1
    82    34    77   1
    83    34    78   1
    84    35    79   1
    85    38    80   1
    86    41    81   1
    87    41    82   1
    88    42    83   1
    89    42    84   1
    90    43    85   1
    91    43    86   1
    92    44    87   1
    93    44    88   1
    94    45    89   1
    95    45    90   1
    96    47    91   1
    97    47    92   1
    98    48    93   1
    99    48    94   1
   100    48    95   1
   101    49    96   1
   102    49    97   1
   103    49    98   1
   104    50    99   1
   105    50   100   1
   106    50   101   1
   107    51   102   1
   108    51   103   1
   109    51   104   1
   110    52   105   1
   111    52   106   1
@<TRIPOS>SUBSTRUCTURE
     1  SU3      1

