@<TRIPOS>MOLECULE
3su5_ligand_022
   106   111
SMALL
GAST_HUCK
****
This file was generated by PARSER (from files_GN.cpp)

@<TRIPOS>ATOM
      1 C         -12.0417   -6.6412    9.1459 C.2         1 SU3       0.2013
      2 N         -10.0399   -5.3422    9.3121 N.am        1 SU3      -0.2469
      3 O         -12.2277   -7.5023    8.2972 O.2         1 SU3      -0.3947
      4 CA        -11.3966   -5.3681    8.8106 C.3         1 SU3       0.1363
      5 CB        -11.2653   -5.0379    7.2978 C.3         1 SU3       0.0206
      6 CG         -9.7866   -5.2668    6.9293 C.3         1 SU3       0.1158
      7 CAF        -9.7178   -5.1475   10.6044 C.2         1 SU3       0.2070
      8 OAG       -10.6003   -4.7271   11.3480 O.2         1 SU3      -0.3942
      9 CAH        -8.3822   -5.2889   11.2169 C.3         1 SU3       0.1378
     10 NAI        -7.9951   -3.9696   11.6526 N.am        1 SU3      -0.2407
     11 CAJ        -6.8752   -3.3082   11.2740 C.2         1 SU3       0.3218
     12 OAK        -6.6273   -2.1080   11.8582 O.3         1 SU3      -0.2633
     13 CAL        -8.2359   -6.3936   12.3542 C.3         1 SU3       0.0025
     14 OAM        -6.0038   -3.8287   10.3771 O.2         1 SU3      -0.3774
     15 CAO        -9.4326   -3.6284    5.0424 C.2         1 SU3       0.4317
     16 OAP       -10.2380   -4.3153    4.1974 O.2         1 SU3      -0.3166
     17 NAQ        -8.8572   -2.4627    4.6599 N.am        1 SU3      -0.2080
     18 CAR       -13.3976   -8.8809   13.5674 C.3         1 SU3      -0.0516
     19 CAS       -13.9642   -8.2996   14.8843 C.3         1 SU3      -0.0651
     20 CAT        -7.9372   -7.7808   11.6795 C.3         1 SU3      -0.0558
     21 NAV       -12.3193   -6.8890   10.4221 N.am        1 SU3      -0.2737
     22 CAX       -12.8252   -8.1064   10.9884 C.3         1 SU3       0.1374
     23 CAY       -11.9995   -9.3093   10.8961 C.2         1 SU3       0.2444
     24 CAZ       -13.4166   -7.8420   12.4078 C.3         1 SU3      -0.0066
     25 CBA       -14.3520   -8.1218   11.2176 C.3         1 SU3      -0.0152
     26 CBB        -8.9844   -1.8602    3.4551 C.2         1 SU3       0.0383
     27 CBC        -8.2711   -0.6682    3.4698 C.ar        1 SU3      -0.0374
     28 CBD        -7.6941   -0.5446    4.7323 C.ar        1 SU3      -0.0293
     29 CBE        -8.0695   -1.6841    5.4396 C.2         1 SU3       0.0366
     30 CBF        -8.0887    0.3198    2.4871 C.ar        1 SU3      -0.0689
     31 CBG        -7.3017    1.4439    2.8018 C.ar        1 SU3      -0.0688
     32 CBH        -6.7189    1.5735    4.0831 C.ar        1 SU3      -0.0606
     33 CBI        -6.9104    0.5836    5.0791 C.ar        1 SU3      -0.0432
     34 CBJ        -6.3284    0.7348    6.4412 C.3         1 SU3      -0.0194
     35 NBK       -12.5013  -10.5099   10.6486 N.am        1 SU3      -0.1552
     36 OBL       -10.8211   -9.1793   11.1784 O.2         1 SU3      -0.3404
     37 SBM       -11.6570  -11.9695   10.7091 S.o2        1 SU3       0.0645
     38 CBN        -9.8906  -11.9102   10.2919 C.3         1 SU3       0.1004
     39 OBO       -11.7896  -12.5792   12.1699 O.2         1 SU3      -0.1503
     40 OBP       -12.3954  -12.9636    9.7098 O.2         1 SU3      -0.1503
     41 CBQ        -9.2444  -13.1129    9.5908 C.3         1 SU3      -0.0268
     42 CBR        -9.5006  -11.8161    8.8109 C.3         1 SU3      -0.0268
     43 CBS        -7.4047    1.1125    7.4974 C.3         1 SU3      -0.0433
     44 CBT        -6.8561    1.3288    8.9348 C.3         1 SU3      -0.0507
     45 CBU        -6.4035    0.0279    9.6651 C.3         1 SU3      -0.0453
     46 CBV        -5.8856    0.1704   11.1471 C.3         1 SU3      -0.0072
     47 CBW        -5.4884   -1.2480   11.6850 C.3         1 SU3       0.0824
     48 CBX        -4.6150    1.0806   11.2018 C.3         1 SU3      -0.0574
     49 CBY        -6.9856    0.7712   12.0824 C.3         1 SU3      -0.0574
     50 CBZ        -7.0147   -6.0779   13.2906 C.3         1 SU3      -0.0558
     51 CCA        -9.4905   -6.5605   13.2702 C.3         1 SU3      -0.0558
     52 CD1        -9.0733   -5.5244    8.2722 C.3         1 SU3       0.0677
     53 OD2        -9.2221   -4.1035    6.3008 O.3         1 SU3      -0.2338
     54 H1        -11.9912   -4.5610    9.2526 H           1 SU3       0.0803
     55 H2        -11.5270   -3.9869    7.1367 H           1 SU3       0.0342
     56 H3        -11.9279   -5.6379    6.6685 H           1 SU3       0.0342
     57 H4         -9.6722   -6.1387    6.2755 H           1 SU3       0.0673
     58 H5         -7.6779   -5.5899   10.4427 H           1 SU3       0.0805
     59 H6         -8.5640   -3.5368   12.3061 H           1 SU3       0.1899
     60 H7        -13.9738   -9.7719   13.3090 H           1 SU3       0.0265
     61 H8        -12.3658   -9.1913   13.7472 H           1 SU3       0.0265
     62 H9        -14.0048   -9.0796   15.6476 H           1 SU3       0.0230
     63 H10       -14.9737   -7.9119   14.7311 H           1 SU3       0.0230
     64 H11       -13.3272   -7.4913   15.2504 H           1 SU3       0.0230
     65 H12        -7.9639   -8.5973   12.4037 H           1 SU3       0.0237
     66 H13        -6.9496   -7.7817   11.2149 H           1 SU3       0.0237
     67 H14        -8.6679   -7.9857   10.8995 H           1 SU3       0.0237
     68 H15       -12.1492   -6.1660   11.0461 H           1 SU3       0.1839
     69 H16       -13.4189   -6.7911   12.7118 H           1 SU3       0.0312
     70 H17       -14.8535   -9.0886   11.1980 H           1 SU3       0.0279
     71 H18       -14.9032   -7.2496   10.8613 H           1 SU3       0.0279
     72 H19        -9.5231   -2.2079    2.6575 H           1 SU3       0.0373
     73 H20        -7.7988   -1.8874    6.4049 H           1 SU3       0.0361
     74 H21        -8.5183    0.2237    1.5635 H           1 SU3       0.0557
     75 H22        -7.1544    2.1722    2.1006 H           1 SU3       0.0599
     76 H23        -6.1605    2.4059    4.2845 H           1 SU3       0.0557
     77 H24        -5.5592    1.5123    6.4394 H           1 SU3       0.0426
     78 H25        -5.8351   -0.1998    6.7148 H           1 SU3       0.0426
     79 H26       -13.4551  -10.5725   10.4876 H           1 SU3       0.2148
     80 H27        -9.2277  -11.3682   10.9679 H           1 SU3       0.0559
     81 H28        -9.8925  -13.9510    9.3309 H           1 SU3       0.0285
     82 H29        -8.1987  -13.3061    9.8395 H           1 SU3       0.0285
     83 H30        -8.6077  -11.2284    8.5856 H           1 SU3       0.0285
     84 H31       -10.3049  -11.8693    8.0744 H           1 SU3       0.0285
     85 H32        -8.1846    0.3491    7.5302 H           1 SU3       0.0287
     86 H33        -7.8782    2.0457    7.1780 H           1 SU3       0.0287
     87 H34        -7.6546    1.7946    9.5155 H           1 SU3       0.0267
     88 H35        -6.0272    2.0368    8.8832 H           1 SU3       0.0267
     89 H36        -5.6107   -0.4327    9.0703 H           1 SU3       0.0271
     90 H37        -7.2486   -0.6656    9.6573 H           1 SU3       0.0271
     91 H38        -4.7467   -1.7048   11.0230 H           1 SU3       0.0617
     92 H39        -5.0219   -1.1606   12.6691 H           1 SU3       0.0617
     93 H40        -4.8498    2.1071   10.9174 H           1 SU3       0.0236
     94 H41        -3.8408    0.7071   10.5274 H           1 SU3       0.0236
     95 H42        -4.2005    1.1096   12.2118 H           1 SU3       0.0236
     96 H43        -7.9176    0.2074   12.0006 H           1 SU3       0.0236
     97 H44        -7.1941    1.8118   11.8317 H           1 SU3       0.0236
     98 H45        -6.6624    0.7413   13.1240 H           1 SU3       0.0236
     99 H46        -7.2050   -5.1781   13.8813 H           1 SU3       0.0237
    100 H47        -6.1066   -5.9149   12.7063 H           1 SU3       0.0237
    101 H48        -6.8251   -6.8983   13.9856 H           1 SU3       0.0237
    102 H49       -10.3416   -6.9447   12.7042 H           1 SU3       0.0237
    103 H50        -9.7726   -5.6032   13.7128 H           1 SU3       0.0237
    104 H51        -9.2987   -7.2627   14.0817 H           1 SU3       0.0237
    105 H52        -8.6800   -6.5448    8.3107 H           1 SU3       0.0553
    106 H53        -8.2420   -4.8214    8.3796 H           1 SU3       0.0553
@<TRIPOS>BOND
     1     1     3   2
     2     1     4   1
     3    21     1  am
     4     4     2   1
     5     2     7  am
     6     2    52   1
     7     4     5   1
     8     5     6   1
     9     6    52   1
    10     6    53   1
    11     7     8   2
    12     7     9   1
    13     9    10   1
    14     9    13   1
    15    10    11  am
    16    11    12   1
    17    11    14   2
    18    12    47   1
    19    13    20   1
    20    13    50   1
    21    13    51   1
    22    15    16   2
    23    15    17  am
    24    53    15   1
    25    17    26   1
    26    17    29   1
    27    18    19   1
    28    24    18   1
    29    22    21   1
    30    22    23   1
    31    22    24   1
    32    22    25   1
    33    23    35  am
    34    23    36   2
    35    24    25   1
    36    26    27   2
    37    27    28  ar
    38    27    30  ar
    39    28    29   2
    40    28    33  ar
    41    30    31  ar
    42    31    32  ar
    43    32    33  ar
    44    33    34   1
    45    34    43   1
    46    35    37  am
    47    37    38   1
    48    37    39   2
    49    37    40   2
    50    38    41   1
    51    38    42   1
    52    41    42   1
    53    43    44   1
    54    44    45   1
    55    45    46   1
    56    46    47   1
    57    46    48   1
    58    46    49   1
    59     4    54   1
    60     5    55   1
    61     5    56   1
    62     6    57   1
    63     9    58   1
    64    10    59   1
    65    18    60   1
    66    18    61   1
    67    19    62   1
    68    19    63   1
    69    19    64   1
    70    20    65   1
    71    20    66   1
    72    20    67   1
    73    21    68   1
    74    24    69   1
    75    25    70   1
    76    25    71   1
    77    26    72   1
    78    29    73   1
    79    30    74   1
    80    31    75   1
    81    32    76   1
    82    34    77   1
    83    34    78   1
    84    35    79   1
    85    38    80   1
    86    41    81   1
    87    41    82   1
    88    42    83   1
    89    42    84   1
    90    43    85   1
    91    43    86   1
    92    44    87   1
    93    44    88   1
    94    45    89   1
    95    45    90   1
    96    47    91   1
    97    47    92   1
    98    48    93   1
    99    48    94   1
   100    48    95   1
   101    49    96   1
   102    49    97   1
   103    49    98   1
   104    50    99   1
   105    50   100   1
   106    50   101   1
   107    51   102   1
   108    51   103   1
   109    51   104   1
   110    52   105   1
   111    52   106   1
@<TRIPOS>SUBSTRUCTURE
     1  SU3      1

