@<TRIPOS>MOLECULE
3su5_ligand_083
   106   111
SMALL
GAST_HUCK
****
This file was generated by PARSER (from files_GN.cpp)

@<TRIPOS>ATOM
      1 C          -6.7161   -3.6623    8.8358 C.2         1 SU3       0.2013
      2 N          -7.9238   -5.7262    9.2311 N.am        1 SU3      -0.2469
      3 O          -7.1742   -3.2770    9.9017 O.2         1 SU3      -0.3947
      4 CA         -6.9892   -5.0285    8.3757 C.3         1 SU3       0.1363
      5 CB         -7.6431   -5.1030    6.9732 C.3         1 SU3       0.0206
      6 CG         -9.1528   -5.1879    7.2397 C.3         1 SU3       0.1158
      7 CAF        -7.6037   -6.2292   10.4416 C.2         1 SU3       0.2070
      8 OAG        -6.4194   -6.3442   10.7227 O.2         1 SU3      -0.3942
      9 CAH        -8.5701   -6.7465   11.4216 C.3         1 SU3       0.1378
     10 NAI        -8.7280   -8.1394   11.1240 N.am        1 SU3      -0.2407
     11 CAJ        -9.8741   -8.7908   10.8363 C.2         1 SU3       0.3218
     12 OAK        -9.7786  -10.1382   10.6936 O.3         1 SU3      -0.2633
     13 CAL        -8.2646   -6.5080   12.9665 C.3         1 SU3       0.0025
     14 OAM       -11.0716   -8.1617   10.7838 O.2         1 SU3      -0.3774
     15 CAO       -10.0842   -5.8066    4.9664 C.2         1 SU3       0.4317
     16 OAP        -9.7078   -4.6431    4.3815 O.2         1 SU3      -0.3166
     17 NAQ       -10.6742   -6.7934    4.2487 N.am        1 SU3      -0.2080
     18 CAR        -3.5843   -0.1117    9.6796 C.3         1 SU3      -0.0516
     19 CAS        -2.2402    0.4843    9.2121 C.3         1 SU3      -0.0651
     20 CAT        -7.2656   -7.5647   13.5653 C.3         1 SU3      -0.0558
     21 NAV        -5.9526   -2.8571    8.1041 N.am        1 SU3      -0.2737
     22 CAX        -5.5733   -1.5047    8.4305 C.3         1 SU3       0.1374
     23 CAY        -6.6062   -0.5749    8.8683 C.2         1 SU3       0.2444
     24 CAZ        -4.0785   -1.2789    8.7801 C.3         1 SU3      -0.0066
     25 CBA        -4.5963   -0.9190    7.3818 C.3         1 SU3      -0.0152
     26 CBB       -10.9804   -6.7740    2.9311 C.2         1 SU3       0.0383
     27 CBC       -11.5141   -8.0084    2.5763 C.ar        1 SU3      -0.0374
     28 CBD       -11.5260   -8.7977    3.7257 C.ar        1 SU3      -0.0293
     29 CBE       -11.0211   -8.0027    4.7461 C.2         1 SU3       0.0366
     30 CBF       -11.9767   -8.5117    1.3508 C.ar        1 SU3      -0.0689
     31 CBG       -12.4520   -9.8385    1.3026 C.ar        1 SU3      -0.0688
     32 CBH       -12.4510  -10.6427    2.4676 C.ar        1 SU3      -0.0606
     33 CBI       -11.9781  -10.1379    3.7045 C.ar        1 SU3      -0.0432
     34 CBJ       -11.9468  -10.9804    4.9324 C.3         1 SU3      -0.0194
     35 NBK        -6.8311   -0.4400   10.1672 N.am        1 SU3      -0.1552
     36 OBL        -7.3171   -0.0412    8.0288 O.2         1 SU3      -0.3404
     37 SBM        -8.0478    0.4845   10.8852 S.o2        1 SU3       0.0645
     38 CBN        -7.5796    2.0811   11.5888 C.3         1 SU3       0.1004
     39 OBO        -9.3430    0.5914    9.9709 O.2         1 SU3      -0.1503
     40 OBP        -8.5358   -0.4044   12.1085 O.2         1 SU3      -0.1503
     41 CBQ        -6.2104    2.1510   12.2767 C.3         1 SU3      -0.0268
     42 CBR        -6.4373    2.8670   10.9354 C.3         1 SU3      -0.0268
     43 CBS       -10.5010  -11.3938    5.3343 C.3         1 SU3      -0.0433
     44 CBT       -10.4038  -12.2023    6.6572 C.3         1 SU3      -0.0507
     45 CBU       -10.6157  -11.3618    7.9545 C.3         1 SU3      -0.0453
     46 CBV       -10.5240  -12.1231    9.3308 C.3         1 SU3      -0.0072
     47 CBW       -10.8146  -11.1136   10.4995 C.3         1 SU3       0.0824
     48 CBX       -11.5948  -13.2613    9.4101 C.3         1 SU3      -0.0574
     49 CBY        -9.1063  -12.7491    9.5399 C.3         1 SU3      -0.0574
     50 CBZ        -7.6647   -5.0883   13.2431 C.3         1 SU3      -0.0558
     51 CCA        -9.6064   -6.6024   13.7714 C.3         1 SU3      -0.0558
     52 CD1        -9.2342   -5.8094    8.6483 C.3         1 SU3       0.0677
     53 OD2        -9.8343   -6.0139    6.2884 O.3         1 SU3      -0.2338
     54 H1         -6.0348   -5.5612    8.3247 H           1 SU3       0.0803
     55 H2         -7.3123   -6.0189    6.4691 H           1 SU3       0.0342
     56 H3         -7.4035   -4.2540    6.3255 H           1 SU3       0.0342
     57 H4         -9.5971   -4.1865    7.2448 H           1 SU3       0.0673
     58 H5         -9.5084   -6.2198   11.2397 H           1 SU3       0.0805
     59 H6         -7.9279   -8.6815   11.1649 H           1 SU3       0.1899
     60 H7         -4.3204    0.6900    9.7168 H           1 SU3       0.0265
     61 H8         -3.4587   -0.4990   10.6919 H           1 SU3       0.0265
     62 H9         -1.9207    1.2628    9.9074 H           1 SU3       0.0230
     63 H10        -2.3262    0.9281    8.2189 H           1 SU3       0.0230
     64 H11        -1.4673   -0.2892    9.1835 H           1 SU3       0.0230
     65 H12        -7.0422   -7.3442   14.6139 H           1 SU3       0.0237
     66 H13        -6.3183   -7.5757   13.0203 H           1 SU3       0.0237
     67 H14        -7.6892   -8.5709   13.5253 H           1 SU3       0.0237
     68 H15        -5.6054   -3.2253    7.2755 H           1 SU3       0.1839
     69 H16        -3.4666   -2.1875    8.7849 H           1 SU3       0.0312
     70 H17        -4.6508    0.1510    7.1691 H           1 SU3       0.0279
     71 H18        -4.2492   -1.5845    6.5870 H           1 SU3       0.0279
     72 H19       -10.8304   -5.9948    2.2864 H           1 SU3       0.0373
     73 H20       -10.9072   -8.3042    5.7170 H           1 SU3       0.0361
     74 H21       -11.9688   -7.9309    0.5087 H           1 SU3       0.0557
     75 H22       -12.7941  -10.2242    0.4202 H           1 SU3       0.0599
     76 H23       -12.7910  -11.6046    2.3988 H           1 SU3       0.0557
     77 H24       -12.5331  -11.8916    4.7831 H           1 SU3       0.0426
     78 H25       -12.4260  -10.4253    5.7406 H           1 SU3       0.0426
     79 H26        -6.2791   -0.9650   10.7674 H           1 SU3       0.2148
     80 H27        -8.3551    2.6900   12.0583 H           1 SU3       0.0559
     81 H28        -5.5828    1.2598   12.2395 H           1 SU3       0.0285
     82 H29        -6.1643    2.7946   13.1582 H           1 SU3       0.0285
     83 H30        -6.5286    3.9524   10.9868 H           1 SU3       0.0285
     84 H31        -5.9718    2.4081   10.0622 H           1 SU3       0.0285
     85 H32        -9.8570  -10.5157    5.4171 H           1 SU3       0.0287
     86 H33       -10.0959  -12.0134    4.5291 H           1 SU3       0.0287
     87 H34        -9.4079  -12.6480    6.6919 H           1 SU3       0.0267
     88 H35       -11.1291  -13.0161    6.6124 H           1 SU3       0.0267
     89 H36       -11.5988  -10.8894    7.8943 H           1 SU3       0.0271
     90 H37        -9.8764  -10.5548    7.9533 H           1 SU3       0.0271
     91 H38       -11.7818  -10.6263   10.3462 H           1 SU3       0.0617
     92 H39       -10.8776  -11.6621   11.4428 H           1 SU3       0.0617
     93 H40       -11.3918  -14.0528    8.6869 H           1 SU3       0.0236
     94 H41       -12.5947  -12.8673    9.2140 H           1 SU3       0.0236
     95 H42       -11.6007  -13.7240   10.4004 H           1 SU3       0.0236
     96 H43        -8.3257  -11.9982    9.4017 H           1 SU3       0.0236
     97 H44        -8.9230  -13.5609    8.8335 H           1 SU3       0.0236
     98 H45        -9.0088  -13.1613   10.5466 H           1 SU3       0.0236
     99 H46        -8.2587   -4.3107   12.7558 H           1 SU3       0.0237
    100 H47        -6.6402   -5.0175   12.8725 H           1 SU3       0.0237
    101 H48        -7.6336   -4.8807   14.3174 H           1 SU3       0.0237
    102 H49       -10.1041   -7.5526   13.5872 H           1 SU3       0.0237
    103 H50       -10.2888   -5.8037   13.4735 H           1 SU3       0.0237
    104 H51        -9.4371   -6.5098   14.8458 H           1 SU3       0.0237
    105 H52        -9.9710   -5.2613    9.2401 H           1 SU3       0.0553
    106 H53        -9.5318   -6.8597    8.5780 H           1 SU3       0.0553
@<TRIPOS>BOND
     1     1     3   2
     2     1     4   1
     3    21     1  am
     4     4     2   1
     5     2     7  am
     6     2    52   1
     7     4     5   1
     8     5     6   1
     9     6    52   1
    10     6    53   1
    11     7     8   2
    12     7     9   1
    13     9    10   1
    14     9    13   1
    15    10    11  am
    16    11    12   1
    17    11    14   2
    18    12    47   1
    19    13    20   1
    20    13    50   1
    21    13    51   1
    22    15    16   2
    23    15    17  am
    24    53    15   1
    25    17    26   1
    26    17    29   1
    27    18    19   1
    28    24    18   1
    29    22    21   1
    30    22    23   1
    31    22    24   1
    32    22    25   1
    33    23    35  am
    34    23    36   2
    35    24    25   1
    36    26    27   2
    37    27    28  ar
    38    27    30  ar
    39    28    29   2
    40    28    33  ar
    41    30    31  ar
    42    31    32  ar
    43    32    33  ar
    44    33    34   1
    45    34    43   1
    46    35    37  am
    47    37    38   1
    48    37    39   2
    49    37    40   2
    50    38    41   1
    51    38    42   1
    52    41    42   1
    53    43    44   1
    54    44    45   1
    55    45    46   1
    56    46    47   1
    57    46    48   1
    58    46    49   1
    59     4    54   1
    60     5    55   1
    61     5    56   1
    62     6    57   1
    63     9    58   1
    64    10    59   1
    65    18    60   1
    66    18    61   1
    67    19    62   1
    68    19    63   1
    69    19    64   1
    70    20    65   1
    71    20    66   1
    72    20    67   1
    73    21    68   1
    74    24    69   1
    75    25    70   1
    76    25    71   1
    77    26    72   1
    78    29    73   1
    79    30    74   1
    80    31    75   1
    81    32    76   1
    82    34    77   1
    83    34    78   1
    84    35    79   1
    85    38    80   1
    86    41    81   1
    87    41    82   1
    88    42    83   1
    89    42    84   1
    90    43    85   1
    91    43    86   1
    92    44    87   1
    93    44    88   1
    94    45    89   1
    95    45    90   1
    96    47    91   1
    97    47    92   1
    98    48    93   1
    99    48    94   1
   100    48    95   1
   101    49    96   1
   102    49    97   1
   103    49    98   1
   104    50    99   1
   105    50   100   1
   106    50   101   1
   107    51   102   1
   108    51   103   1
   109    51   104   1
   110    52   105   1
   111    52   106   1
@<TRIPOS>SUBSTRUCTURE
     1  SU3      1

