@<TRIPOS>MOLECULE
3su5_ligand_023
   106   111
SMALL
GAST_HUCK
****
This file was generated by PARSER (from files_GN.cpp)

@<TRIPOS>ATOM
      1 C         -12.4836   -5.6933   11.5246 C.2         1 SU3       0.2013
      2 N         -10.3900   -5.4292   10.2515 N.am        1 SU3      -0.2469
      3 O         -13.3010   -4.9774   12.0911 O.2         1 SU3      -0.3947
      4 CA        -11.8181   -5.1845   10.3256 C.3         1 SU3       0.1363
      5 CB        -12.4191   -5.8400    9.0559 C.3         1 SU3       0.0206
      6 CG        -11.2377   -5.9679    8.0831 C.3         1 SU3       0.1158
      7 CAF        -9.5045   -5.0551   11.2005 C.2         1 SU3       0.2070
      8 OAG        -9.9126   -4.3867   12.1444 O.2         1 SU3      -0.3942
      9 CAH        -8.0646   -5.3841   11.2227 C.3         1 SU3       0.1378
     10 NAI        -7.3369   -4.1457   11.1117 N.am        1 SU3      -0.2407
     11 CAJ        -6.4939   -3.7819   10.1166 C.2         1 SU3       0.3218
     12 OAK        -5.8654   -2.5809   10.2328 O.3         1 SU3      -0.2633
     13 CAL        -7.5663   -6.2580   12.4506 C.3         1 SU3       0.0025
     14 OAM        -6.2355   -4.5918    9.0614 O.2         1 SU3      -0.3774
     15 CAO       -11.9095   -4.4205    6.2164 C.2         1 SU3       0.4317
     16 OAP       -13.0298   -5.1325    5.9414 O.2         1 SU3      -0.3166
     17 NAQ       -11.5859   -3.3330    5.4729 N.am        1 SU3      -0.2080
     18 CAR       -15.1771   -8.9374   13.4691 C.3         1 SU3      -0.0516
     19 CAS       -15.0803  -10.0260   14.5618 C.3         1 SU3      -0.0651
     20 CAT        -6.1019   -6.7474   12.1765 C.3         1 SU3      -0.0558
     21 NAV       -12.2315   -6.9336   11.9351 N.am        1 SU3      -0.2737
     22 CAX       -12.8476   -7.5936   13.0614 C.3         1 SU3       0.1374
     23 CAY       -12.7564   -6.9789   14.3898 C.2         1 SU3       0.2444
     24 CAZ       -13.8774   -8.6846   12.6337 C.3         1 SU3      -0.0066
     25 CBA       -12.4723   -9.0971   13.0925 C.3         1 SU3      -0.0152
     26 CBB       -12.3090   -2.8282    4.4473 C.2         1 SU3       0.0383
     27 CBC       -11.6346   -1.7347    3.9194 C.ar        1 SU3      -0.0374
     28 CBD       -10.4623   -1.5705    4.6563 C.ar        1 SU3      -0.0293
     29 CBE       -10.4692   -2.5828    5.6157 C.2         1 SU3       0.0366
     30 CBF       -11.9491   -0.8826    2.8486 C.ar        1 SU3      -0.0689
     31 CBG       -11.0471    0.1501    2.5275 C.ar        1 SU3      -0.0688
     32 CBH        -9.8564    0.3169    3.2678 C.ar        1 SU3      -0.0606
     33 CBI        -9.5383   -0.5426    4.3526 C.ar        1 SU3      -0.0432
     34 CBJ        -8.2794   -0.3664    5.1277 C.3         1 SU3      -0.0194
     35 NBK       -11.9089   -5.9767   14.5998 N.am        1 SU3      -0.1552
     36 OBL       -13.5024   -7.3391   15.2976 O.2         1 SU3      -0.3404
     37 SBM       -11.8751   -5.0194   15.9906 S.o2        1 SU3       0.0645
     38 CBN       -13.2801   -3.9206   16.2795 C.3         1 SU3       0.1004
     39 OBO       -11.5365   -5.8960   17.2793 O.2         1 SU3      -0.1503
     40 OBP       -10.6114   -4.0686   15.8419 O.2         1 SU3      -0.1503
     41 CBQ       -13.9100   -3.2379   15.0546 C.3         1 SU3      -0.0268
     42 CBR       -14.6827   -4.3339   15.8073 C.3         1 SU3      -0.0268
     43 CBS        -8.5319    0.2952    6.5104 C.3         1 SU3      -0.0433
     44 CBT        -7.2525    0.5476    7.3568 C.3         1 SU3      -0.0507
     45 CBU        -6.5694   -0.7407    7.9091 C.3         1 SU3      -0.0453
     46 CBV        -5.3140   -0.5671    8.8411 C.3         1 SU3      -0.0072
     47 CBW        -4.8824   -1.9820    9.3659 C.3         1 SU3       0.0824
     48 CBX        -4.1184    0.0440    8.0403 C.3         1 SU3      -0.0574
     49 CBY        -5.6221    0.3478   10.0715 C.3         1 SU3      -0.0574
     50 CBZ        -7.5540   -5.4842   13.8125 C.3         1 SU3      -0.0558
     51 CCA        -8.4630   -7.5308   12.6168 C.3         1 SU3      -0.0558
     52 CD1       -10.0244   -6.0749    9.0227 C.3         1 SU3       0.0677
     53 OD2       -11.0888   -4.8250    7.2245 O.3         1 SU3      -0.2338
     54 H1        -11.9699   -4.1002   10.2507 H           1 SU3       0.0803
     55 H2        -13.2306   -5.2385    8.6426 H           1 SU3       0.0342
     56 H3        -12.8052   -6.8457    9.2505 H           1 SU3       0.0342
     57 H4        -11.3193   -6.8678    7.4628 H           1 SU3       0.0673
     58 H5         -7.8418   -5.9929   10.3481 H           1 SU3       0.0805
     59 H6         -7.4521   -3.5077   11.8347 H           1 SU3       0.1899
     60 H7        -15.5207   -8.0106   13.9165 H           1 SU3       0.0265
     61 H8        -15.9537   -9.2557   12.7642 H           1 SU3       0.0265
     62 H9        -16.0713  -10.2172   14.9854 H           1 SU3       0.0230
     63 H10       -14.4116   -9.7192   15.3678 H           1 SU3       0.0230
     64 H11       -14.7082  -10.9610   14.1312 H           1 SU3       0.0230
     65 H12        -5.7316   -7.3661   12.9981 H           1 SU3       0.0237
     66 H13        -5.4187   -5.9029   12.0605 H           1 SU3       0.0237
     67 H14        -6.0535   -7.3462   11.2636 H           1 SU3       0.0237
     68 H15       -11.5929   -7.4493   11.4146 H           1 SU3       0.1839
     69 H16       -14.0089   -8.7462   11.5454 H           1 SU3       0.0312
     70 H17       -12.4400   -9.6039   14.0562 H           1 SU3       0.0279
     71 H18       -11.8320   -9.4759   12.2875 H           1 SU3       0.0279
     72 H19       -13.2014   -3.1879    4.0983 H           1 SU3       0.0373
     73 H20        -9.7282   -2.7387    6.3020 H           1 SU3       0.0361
     74 H21       -12.8089   -1.0131    2.3123 H           1 SU3       0.0557
     75 H22       -11.2555    0.7807    1.7518 H           1 SU3       0.0599
     76 H23        -9.2218    1.0769    3.0127 H           1 SU3       0.0557
     77 H24        -7.5756    0.2578    4.5714 H           1 SU3       0.0426
     78 H25        -7.8078   -1.3429    5.2523 H           1 SU3       0.0426
     79 H26       -11.3135   -5.7273   13.8707 H           1 SU3       0.2148
     80 H27       -13.2570   -3.3048   17.1798 H           1 SU3       0.0559
     81 H28       -13.5385   -3.5347   14.0646 H           1 SU3       0.0285
     82 H29       -14.2986   -2.2248   15.2129 H           1 SU3       0.0285
     83 H30       -15.5269   -3.9700   16.4020 H           1 SU3       0.0285
     84 H31       -14.7898   -5.2706   15.2562 H           1 SU3       0.0285
     85 H32        -9.2291   -0.3151    7.0890 H           1 SU3       0.0287
     86 H33        -9.0145    1.2632    6.3392 H           1 SU3       0.0287
     87 H34        -7.5497    1.1736    8.2006 H           1 SU3       0.0267
     88 H35        -6.5409    1.1170    6.7564 H           1 SU3       0.0267
     89 H36        -6.2799   -1.3631    7.0587 H           1 SU3       0.0271
     90 H37        -7.3267   -1.2966    8.4612 H           1 SU3       0.0271
     91 H38        -4.6562   -2.6407    8.5219 H           1 SU3       0.0617
     92 H39        -3.9660   -1.8910    9.9535 H           1 SU3       0.0617
     93 H40        -4.3446    1.0573    7.7057 H           1 SU3       0.0236
     94 H41        -3.8899   -0.5619    7.1608 H           1 SU3       0.0236
     95 H42        -3.2204    0.0932    8.6602 H           1 SU3       0.0236
     96 H43        -6.5171    0.0053   10.5952 H           1 SU3       0.0236
     97 H44        -5.7824    1.3823    9.7641 H           1 SU3       0.0236
     98 H45        -4.7892    0.3407   10.7782 H           1 SU3       0.0236
     99 H46        -8.5523   -5.1550   14.0952 H           1 SU3       0.0237
    100 H47        -6.9043   -4.6091   13.7593 H           1 SU3       0.0237
    101 H48        -7.1850   -6.1234   14.6190 H           1 SU3       0.0237
    102 H49        -8.5260   -8.0858   11.6782 H           1 SU3       0.0237
    103 H50        -9.4748   -7.2580   12.9194 H           1 SU3       0.0237
    104 H51        -8.0589   -8.1988   13.3809 H           1 SU3       0.0237
    105 H52        -9.7810   -7.1226    9.2147 H           1 SU3       0.0553
    106 H53        -9.1676   -5.5913    8.5481 H           1 SU3       0.0553
@<TRIPOS>BOND
     1     1     3   2
     2     1     4   1
     3    21     1  am
     4     4     2   1
     5     2     7  am
     6     2    52   1
     7     4     5   1
     8     5     6   1
     9     6    52   1
    10     6    53   1
    11     7     8   2
    12     7     9   1
    13     9    10   1
    14     9    13   1
    15    10    11  am
    16    11    12   1
    17    11    14   2
    18    12    47   1
    19    13    20   1
    20    13    50   1
    21    13    51   1
    22    15    16   2
    23    15    17  am
    24    53    15   1
    25    17    26   1
    26    17    29   1
    27    18    19   1
    28    24    18   1
    29    22    21   1
    30    22    23   1
    31    22    24   1
    32    22    25   1
    33    23    35  am
    34    23    36   2
    35    24    25   1
    36    26    27   2
    37    27    28  ar
    38    27    30  ar
    39    28    29   2
    40    28    33  ar
    41    30    31  ar
    42    31    32  ar
    43    32    33  ar
    44    33    34   1
    45    34    43   1
    46    35    37  am
    47    37    38   1
    48    37    39   2
    49    37    40   2
    50    38    41   1
    51    38    42   1
    52    41    42   1
    53    43    44   1
    54    44    45   1
    55    45    46   1
    56    46    47   1
    57    46    48   1
    58    46    49   1
    59     4    54   1
    60     5    55   1
    61     5    56   1
    62     6    57   1
    63     9    58   1
    64    10    59   1
    65    18    60   1
    66    18    61   1
    67    19    62   1
    68    19    63   1
    69    19    64   1
    70    20    65   1
    71    20    66   1
    72    20    67   1
    73    21    68   1
    74    24    69   1
    75    25    70   1
    76    25    71   1
    77    26    72   1
    78    29    73   1
    79    30    74   1
    80    31    75   1
    81    32    76   1
    82    34    77   1
    83    34    78   1
    84    35    79   1
    85    38    80   1
    86    41    81   1
    87    41    82   1
    88    42    83   1
    89    42    84   1
    90    43    85   1
    91    43    86   1
    92    44    87   1
    93    44    88   1
    94    45    89   1
    95    45    90   1
    96    47    91   1
    97    47    92   1
    98    48    93   1
    99    48    94   1
   100    48    95   1
   101    49    96   1
   102    49    97   1
   103    49    98   1
   104    50    99   1
   105    50   100   1
   106    50   101   1
   107    51   102   1
   108    51   103   1
   109    51   104   1
   110    52   105   1
   111    52   106   1
@<TRIPOS>SUBSTRUCTURE
     1  SU3      1

