@<TRIPOS>MOLECULE
3su5_ligand_064
   106   111
SMALL
GAST_HUCK
****
This file was generated by PARSER (from files_GN.cpp)

@<TRIPOS>ATOM
      1 C         -11.3179   -6.1818    7.4327 C.2         1 SU3       0.2013
      2 N         -12.5850   -6.8590    9.3721 N.am        1 SU3      -0.2469
      3 O         -11.3021   -4.9627    7.5518 O.2         1 SU3      -0.3947
      4 CA        -12.4864   -6.9116    7.9297 C.3         1 SU3       0.1363
      5 CB        -13.8210   -6.3361    7.3797 C.3         1 SU3       0.0206
      6 CG        -14.7534   -6.2580    8.6036 C.3         1 SU3       0.1158
      7 CAF       -11.6555   -7.3769   10.1999 C.2         1 SU3       0.2070
      8 OAG       -10.7820   -8.0794    9.7051 O.2         1 SU3      -0.3942
      9 CAH       -11.5802   -7.2008   11.6612 C.3         1 SU3       0.1378
     10 NAI       -11.6482   -8.5064   12.2650 N.am        1 SU3      -0.2407
     11 CAJ       -12.5943   -8.9498   13.1252 C.2         1 SU3       0.3218
     12 OAK       -12.4401  -10.1967   13.6419 O.3         1 SU3      -0.2633
     13 CAL       -10.3243   -6.3804   12.1745 C.3         1 SU3       0.0025
     14 OAM       -13.6475   -8.1815   13.4903 O.2         1 SU3      -0.3774
     15 CAO       -16.6747   -7.7198    7.8998 C.2         1 SU3       0.4317
     16 OAP       -16.9667   -6.9320    6.8355 O.2         1 SU3      -0.3166
     17 NAQ       -17.4311   -8.8142    8.1760 N.am        1 SU3      -0.2080
     18 CAR        -6.5825   -7.2173    5.7647 C.3         1 SU3      -0.0516
     19 CAS        -5.9849   -7.2011    4.3425 C.3         1 SU3      -0.0651
     20 CAT        -8.9480   -7.0497   11.8411 C.3         1 SU3      -0.0558
     21 NAV       -10.2662   -6.8382    6.9539 N.am        1 SU3      -0.2737
     22 CAX        -9.0458   -6.2574    6.4708 C.3         1 SU3       0.1374
     23 CAY        -8.3946   -5.2394    7.2721 C.2         1 SU3       0.2444
     24 CAZ        -8.1332   -7.2861    5.7474 C.3         1 SU3      -0.0066
     25 CBA        -8.8730   -6.2112    4.9371 C.3         1 SU3      -0.0152
     26 CBB       -18.5036   -9.2363    7.4726 C.2         1 SU3       0.0383
     27 CBC       -19.0261  -10.3680    8.0853 C.ar        1 SU3      -0.0374
     28 CBD       -18.2307  -10.6436    9.1978 C.ar        1 SU3      -0.0293
     29 CBE       -17.2469   -9.6573    9.2206 C.2         1 SU3       0.0366
     30 CBF       -20.1352  -11.1648    7.7651 C.ar        1 SU3      -0.0689
     31 CBG       -20.4333  -12.2648    8.5927 C.ar        1 SU3      -0.0688
     32 CBH       -19.6309  -12.5469    9.7215 C.ar        1 SU3      -0.0606
     33 CBI       -18.5134  -11.7387   10.0486 C.ar        1 SU3      -0.0432
     34 CBJ       -17.6751  -12.0369   11.2426 C.3         1 SU3      -0.0194
     35 NBK        -7.6481   -5.5954    8.3032 N.am        1 SU3      -0.1552
     36 OBL        -8.6019   -4.0666    6.9857 O.2         1 SU3      -0.3404
     37 SBM        -6.8103   -4.5113    9.2852 S.o2        1 SU3       0.0645
     38 CBN        -5.6194   -3.5021    8.3750 C.3         1 SU3       0.1004
     39 OBO        -7.8106   -3.6453   10.1665 O.2         1 SU3      -0.1503
     40 OBP        -5.9879   -5.3927   10.3207 O.2         1 SU3      -0.1503
     41 CBQ        -6.0388   -2.0721    8.0039 C.3         1 SU3      -0.0268
     42 CBR        -4.9804   -2.3049    9.0924 C.3         1 SU3      -0.0268
     43 CBS       -16.3352  -12.7244   10.8621 C.3         1 SU3      -0.0433
     44 CBT       -15.4479  -13.1203   12.0754 C.3         1 SU3      -0.0507
     45 CBU       -14.7627  -11.9198   12.7940 C.3         1 SU3      -0.0453
     46 CBV       -13.8219  -12.2399   14.0166 C.3         1 SU3      -0.0072
     47 CBW       -13.2710  -10.8889   14.5920 C.3         1 SU3       0.0824
     48 CBX       -14.6153  -12.9582   15.1574 C.3         1 SU3      -0.0574
     49 CBY       -12.6145  -13.1406   13.5920 C.3         1 SU3      -0.0574
     50 CBZ       -10.3471   -4.9479   11.5485 C.3         1 SU3      -0.0558
     51 CCA       -10.4050   -6.2108   13.7320 C.3         1 SU3      -0.0558
     52 CD1       -13.7935   -6.2296    9.8084 C.3         1 SU3       0.0677
     53 OD2       -15.6304   -7.3920    8.7097 O.3         1 SU3      -0.2338
     54 H1        -12.4304   -7.9683    7.6358 H           1 SU3       0.0803
     55 H2        -14.2249   -6.9826    6.5956 H           1 SU3       0.0342
     56 H3        -13.7121   -5.3297    6.9607 H           1 SU3       0.0342
     57 H4        -15.3580   -5.3453    8.5879 H           1 SU3       0.0673
     58 H5        -12.4444   -6.6227   11.9942 H           1 SU3       0.0805
     59 H6        -10.9265   -9.1207   12.0574 H           1 SU3       0.1899
     60 H7         -6.2272   -6.3312    6.2964 H           1 SU3       0.0265
     61 H8         -6.2135   -8.1010    6.2902 H           1 SU3       0.0265
     62 H9         -4.8949   -7.1895    4.4074 H           1 SU3       0.0230
     63 H10        -6.3123   -6.3085    3.8055 H           1 SU3       0.0230
     64 H11        -6.2935   -8.0877    3.7833 H           1 SU3       0.0230
     65 H12        -8.1282   -6.5199   12.3333 H           1 SU3       0.0237
     66 H13        -8.7432   -7.0260   10.7695 H           1 SU3       0.0237
     67 H14        -8.9281   -8.0898   12.1741 H           1 SU3       0.0237
     68 H15       -10.3280   -7.8068    6.9295 H           1 SU3       0.1839
     69 H16        -8.5653   -8.2817    5.6180 H           1 SU3       0.0312
     70 H17        -8.2620   -5.3995    4.5362 H           1 SU3       0.0279
     71 H18        -9.7164   -6.5702    4.3450 H           1 SU3       0.0279
     72 H19       -18.8918   -8.7964    6.6324 H           1 SU3       0.0373
     73 H20       -16.5129   -9.5797    9.9273 H           1 SU3       0.0361
     74 H21       -20.7151  -10.9518    6.9511 H           1 SU3       0.0557
     75 H22       -21.2349  -12.8600    8.3763 H           1 SU3       0.0599
     76 H23       -19.8708  -13.3553   10.3013 H           1 SU3       0.0557
     77 H24       -18.2183  -12.6928   11.9288 H           1 SU3       0.0426
     78 H25       -17.4876  -11.1060   11.7804 H           1 SU3       0.0426
     79 H26        -7.5289   -6.5447    8.4778 H           1 SU3       0.2148
     80 H27        -4.9833   -3.9936    7.6380 H           1 SU3       0.0559
     81 H28        -7.0066   -1.7212    8.3683 H           1 SU3       0.0285
     82 H29        -5.6571   -1.6934    7.0533 H           1 SU3       0.0285
     83 H30        -3.9483   -2.0888    8.8114 H           1 SU3       0.0285
     84 H31        -5.3037   -2.1194   10.1178 H           1 SU3       0.0285
     85 H32       -15.7599  -12.0785   10.1946 H           1 SU3       0.0287
     86 H33       -16.5699  -13.6385   10.3085 H           1 SU3       0.0287
     87 H34       -14.6731  -13.7940   11.7050 H           1 SU3       0.0267
     88 H35       -16.0613  -13.6794   12.7841 H           1 SU3       0.0267
     89 H36       -15.5467  -11.2417   13.1393 H           1 SU3       0.0271
     90 H37       -14.1846  -11.3784   12.0398 H           1 SU3       0.0271
     91 H38       -14.1006  -10.2590   14.9262 H           1 SU3       0.0617
     92 H39       -12.6479  -11.0855   15.4681 H           1 SU3       0.0617
     93 H40       -14.9452  -13.9510   14.8469 H           1 SU3       0.0236
     94 H41       -15.4962  -12.3780   15.4400 H           1 SU3       0.0236
     95 H42       -13.9926  -13.0833   16.0458 H           1 SU3       0.0236
     96 H43       -12.0798  -12.7037   12.7467 H           1 SU3       0.0236
     97 H44       -12.9489  -14.1377   13.3028 H           1 SU3       0.0236
     98 H45       -11.9068  -13.2565   14.4159 H           1 SU3       0.0236
     99 H46       -11.2743   -4.4305   11.7981 H           1 SU3       0.0237
    100 H47       -10.2680   -4.9924   10.4600 H           1 SU3       0.0237
    101 H48        -9.5177   -4.3450   11.9225 H           1 SU3       0.0237
    102 H49       -10.3235   -7.1755   14.2366 H           1 SU3       0.0237
    103 H50       -11.3498   -5.7534   14.0304 H           1 SU3       0.0237
    104 H51        -9.5967   -5.5780   14.1048 H           1 SU3       0.0237
    105 H52       -13.5805   -5.1997   10.1094 H           1 SU3       0.0553
    106 H53       -14.2598   -6.7560   10.6453 H           1 SU3       0.0553
@<TRIPOS>BOND
     1     1     3   2
     2     1     4   1
     3    21     1  am
     4     4     2   1
     5     2     7  am
     6     2    52   1
     7     4     5   1
     8     5     6   1
     9     6    52   1
    10     6    53   1
    11     7     8   2
    12     7     9   1
    13     9    10   1
    14     9    13   1
    15    10    11  am
    16    11    12   1
    17    11    14   2
    18    12    47   1
    19    13    20   1
    20    13    50   1
    21    13    51   1
    22    15    16   2
    23    15    17  am
    24    53    15   1
    25    17    26   1
    26    17    29   1
    27    18    19   1
    28    24    18   1
    29    22    21   1
    30    22    23   1
    31    22    24   1
    32    22    25   1
    33    23    35  am
    34    23    36   2
    35    24    25   1
    36    26    27   2
    37    27    28  ar
    38    27    30  ar
    39    28    29   2
    40    28    33  ar
    41    30    31  ar
    42    31    32  ar
    43    32    33  ar
    44    33    34   1
    45    34    43   1
    46    35    37  am
    47    37    38   1
    48    37    39   2
    49    37    40   2
    50    38    41   1
    51    38    42   1
    52    41    42   1
    53    43    44   1
    54    44    45   1
    55    45    46   1
    56    46    47   1
    57    46    48   1
    58    46    49   1
    59     4    54   1
    60     5    55   1
    61     5    56   1
    62     6    57   1
    63     9    58   1
    64    10    59   1
    65    18    60   1
    66    18    61   1
    67    19    62   1
    68    19    63   1
    69    19    64   1
    70    20    65   1
    71    20    66   1
    72    20    67   1
    73    21    68   1
    74    24    69   1
    75    25    70   1
    76    25    71   1
    77    26    72   1
    78    29    73   1
    79    30    74   1
    80    31    75   1
    81    32    76   1
    82    34    77   1
    83    34    78   1
    84    35    79   1
    85    38    80   1
    86    41    81   1
    87    41    82   1
    88    42    83   1
    89    42    84   1
    90    43    85   1
    91    43    86   1
    92    44    87   1
    93    44    88   1
    94    45    89   1
    95    45    90   1
    96    47    91   1
    97    47    92   1
    98    48    93   1
    99    48    94   1
   100    48    95   1
   101    49    96   1
   102    49    97   1
   103    49    98   1
   104    50    99   1
   105    50   100   1
   106    50   101   1
   107    51   102   1
   108    51   103   1
   109    51   104   1
   110    52   105   1
   111    52   106   1
@<TRIPOS>SUBSTRUCTURE
     1  SU3      1

