@<TRIPOS>MOLECULE
3su5_ligand_011
   106   111
SMALL
GAST_HUCK
****
This file was generated by PARSER (from files_GN.cpp)

@<TRIPOS>ATOM
      1 C         -12.2144   -6.5721    9.7763 C.2         1 SU3       0.2013
      2 N         -10.0759   -5.3658    9.6046 N.am        1 SU3      -0.2469
      3 O         -11.6667   -7.3237   10.5645 O.2         1 SU3      -0.3947
      4 CA        -11.4897   -5.3991    9.2604 C.3         1 SU3       0.1363
      5 CB        -11.5450   -5.2758    7.7066 C.3         1 SU3       0.0206
      6 CG        -10.0894   -5.2245    7.2064 C.3         1 SU3       0.1158
      7 CAF        -9.6071   -5.2384   10.8641 C.2         1 SU3       0.2070
      8 OAG       -10.4092   -4.9375   11.7401 O.2         1 SU3      -0.3942
      9 CAH        -8.1996   -5.3725   11.2780 C.3         1 SU3       0.1378
     10 NAI        -7.7566   -4.0517   11.6245 N.am        1 SU3      -0.2407
     11 CAJ        -6.6805   -3.4056   11.1270 C.2         1 SU3       0.3218
     12 OAK        -6.3645   -2.2071   11.6929 O.3         1 SU3      -0.2633
     13 CAL        -7.8813   -6.4217   12.4259 C.3         1 SU3       0.0025
     14 OAM        -5.9067   -3.9434   10.1568 O.2         1 SU3      -0.3774
     15 CAO       -10.1140   -3.4248    5.4439 C.2         1 SU3       0.4317
     16 OAP       -10.9857   -4.1117    4.6653 O.2         1 SU3      -0.3166
     17 NAQ        -9.6010   -2.2365    5.0268 N.am        1 SU3      -0.2080
     18 CAR       -15.9879   -9.6930    8.5985 C.3         1 SU3      -0.0516
     19 CAS       -16.9741   -9.0675    7.5958 C.3         1 SU3      -0.0651
     20 CAT        -8.5430   -7.8028   12.1001 C.3         1 SU3      -0.0558
     21 NAV       -13.4759   -6.8055    9.4207 N.am        1 SU3      -0.2737
     22 CAX       -14.2953   -7.8993    9.8672 C.3         1 SU3       0.1374
     23 CAY       -15.4050   -7.5314   10.7282 C.2         1 SU3       0.2444
     24 CAZ       -14.6735   -8.8662    8.7134 C.3         1 SU3      -0.0066
     25 CBA       -13.7433   -9.3424    9.8377 C.3         1 SU3      -0.0152
     26 CBB        -9.8846   -1.6172    3.8618 C.2         1 SU3       0.0383
     27 CBC        -9.1322   -0.4447    3.7812 C.ar        1 SU3      -0.0374
     28 CBD        -8.3799   -0.3574    4.9504 C.ar        1 SU3      -0.0293
     29 CBE        -8.6952   -1.4901    5.6968 C.2         1 SU3       0.0366
     30 CBF        -9.0422    0.5298    2.7811 C.ar        1 SU3      -0.0689
     31 CBG        -8.1630    1.6161    2.9768 C.ar        1 SU3      -0.0688
     32 CBH        -7.3996    1.7109    4.1646 C.ar        1 SU3      -0.0606
     33 CBI        -7.4978    0.7283    5.1797 C.ar        1 SU3      -0.0432
     34 CBJ        -6.7082    0.8358    6.4367 C.3         1 SU3      -0.0194
     35 NBK       -15.3822   -7.8303   12.0181 N.am        1 SU3      -0.1552
     36 OBL       -16.3556   -6.9640   10.2138 O.2         1 SU3      -0.3404
     37 SBM       -16.6798   -7.5874   13.0674 S.o2        1 SU3       0.0645
     38 CBN       -17.3453   -5.9066   13.0333 C.3         1 SU3       0.1004
     39 OBO       -17.8266   -8.6417   12.7458 O.2         1 SU3      -0.1503
     40 OBP       -16.1821   -7.9270   14.5398 O.2         1 SU3      -0.1503
     41 CBQ       -18.2535   -5.4926   14.2005 C.3         1 SU3      -0.0268
     42 CBR       -16.8585   -4.8692   14.0541 C.3         1 SU3      -0.0268
     43 CBS        -7.5899    1.2580    7.6440 C.3         1 SU3      -0.0433
     44 CBT        -6.8240    1.3915    8.9906 C.3         1 SU3      -0.0507
     45 CBU        -6.3419    0.0416    9.6041 C.3         1 SU3      -0.0453
     46 CBV        -5.6541    0.0944   11.0189 C.3         1 SU3      -0.0072
     47 CBW        -5.2361   -1.3574   11.4371 C.3         1 SU3       0.0824
     48 CBX        -4.3587    0.9687   10.9760 C.3         1 SU3      -0.0574
     49 CBY        -6.6251    0.6701   12.1004 C.3         1 SU3      -0.0574
     50 CBZ        -6.3294   -6.6605   12.4941 C.3         1 SU3      -0.0558
     51 CCA        -8.3483   -5.9655   13.8483 C.3         1 SU3      -0.0558
     52 CD1        -9.2341   -5.4919    8.4555 C.3         1 SU3       0.0677
     53 OD2        -9.7165   -3.9547    6.6358 O.3         1 SU3      -0.2338
     54 H1        -11.9706   -4.5050    9.6805 H           1 SU3       0.0803
     55 H2        -12.0795   -4.3636    7.4197 H           1 SU3       0.0342
     56 H3        -12.0575   -6.1210    7.2381 H           1 SU3       0.0342
     57 H4         -9.9056   -6.0118    6.4682 H           1 SU3       0.0673
     58 H5         -7.6266   -5.7186   10.4203 H           1 SU3       0.0805
     59 H6         -8.2467   -3.5962   12.3279 H           1 SU3       0.1899
     60 H7        -15.7355  -10.7066    8.2522 H           1 SU3       0.0265
     61 H8        -16.4693   -9.7859    9.5676 H           1 SU3       0.0265
     62 H9        -17.8670   -9.6890    7.5237 H           1 SU3       0.0230
     63 H10       -16.5230   -8.9964    6.6057 H           1 SU3       0.0230
     64 H11       -17.2668   -8.0739    7.9231 H           1 SU3       0.0230
     65 H12        -8.1898   -8.5736   12.7863 H           1 SU3       0.0237
     66 H13        -8.3007   -8.1228   11.0839 H           1 SU3       0.0237
     67 H14        -9.6268   -7.7468   12.1922 H           1 SU3       0.0237
     68 H15       -13.8924   -6.1676    8.8122 H           1 SU3       0.1839
     69 H16       -14.1130   -8.7437    7.7773 H           1 SU3       0.0312
     70 H17       -14.1604  -10.0206   10.5781 H           1 SU3       0.0279
     71 H18       -12.7086   -9.4801    9.5253 H           1 SU3       0.0279
     72 H19       -10.5256   -1.9434    3.1379 H           1 SU3       0.0373
     73 H20        -8.2785   -1.7211    6.6029 H           1 SU3       0.0361
     74 H21        -9.5937    0.4603    1.9232 H           1 SU3       0.0557
     75 H22        -8.0780    2.3406    2.2596 H           1 SU3       0.0599
     76 H23        -6.7765    2.5161    4.2824 H           1 SU3       0.0557
     77 H24        -5.9101    1.5731    6.3210 H           1 SU3       0.0426
     78 H25        -6.2287   -0.1244    6.6295 H           1 SU3       0.0426
     79 H26       -14.5901   -8.2727   12.3701 H           1 SU3       0.2148
     80 H27       -17.6641   -5.5067   12.0725 H           1 SU3       0.0559
     81 H28       -18.3697   -6.2145   15.0145 H           1 SU3       0.0285
     82 H29       -19.0904   -4.8436   13.9424 H           1 SU3       0.0285
     83 H30       -16.8443   -3.8360   13.7139 H           1 SU3       0.0285
     84 H31       -16.1198   -5.1986   14.7890 H           1 SU3       0.0285
     85 H32        -8.4120    0.5532    7.7792 H           1 SU3       0.0287
     86 H33        -8.0339    2.2315    7.4152 H           1 SU3       0.0287
     87 H34        -7.5024    1.8777    9.6964 H           1 SU3       0.0267
     88 H35        -5.9730    2.0582    8.8377 H           1 SU3       0.0267
     89 H36        -5.6381   -0.4123    8.9030 H           1 SU3       0.0271
     90 H37        -7.2071   -0.6236    9.6627 H           1 SU3       0.0271
     91 H38        -4.5826   -1.7939   10.6780 H           1 SU3       0.0617
     92 H39        -4.6666   -1.3275   12.3686 H           1 SU3       0.0617
     93 H40        -4.5900    2.0118   10.7555 H           1 SU3       0.0236
     94 H41        -3.6686    0.6023   10.2118 H           1 SU3       0.0236
     95 H42        -3.8414    0.9463   11.9381 H           1 SU3       0.0236
     96 H43        -7.5896    0.1563   12.0743 H           1 SU3       0.0236
     97 H44        -6.8041    1.7363   11.9476 H           1 SU3       0.0236
     98 H45        -6.2061    0.5464   13.0992 H           1 SU3       0.0236
     99 H46        -5.8021   -5.7421   12.7485 H           1 SU3       0.0237
    100 H47        -5.9430   -7.0193   11.5359 H           1 SU3       0.0237
    101 H48        -6.0753   -7.4059   13.2515 H           1 SU3       0.0237
    102 H49        -9.4278   -5.8469   13.8929 H           1 SU3       0.0237
    103 H50        -7.8869   -5.0184   14.1242 H           1 SU3       0.0237
    104 H51        -8.0675   -6.7036   14.5998 H           1 SU3       0.0237
    105 H52        -8.8167   -6.5035    8.4174 H           1 SU3       0.0553
    106 H53        -8.4058   -4.7759    8.4893 H           1 SU3       0.0553
@<TRIPOS>BOND
     1     1     3   2
     2     1     4   1
     3    21     1  am
     4     4     2   1
     5     2     7  am
     6     2    52   1
     7     4     5   1
     8     5     6   1
     9     6    52   1
    10     6    53   1
    11     7     8   2
    12     7     9   1
    13     9    10   1
    14     9    13   1
    15    10    11  am
    16    11    12   1
    17    11    14   2
    18    12    47   1
    19    13    20   1
    20    13    50   1
    21    13    51   1
    22    15    16   2
    23    15    17  am
    24    53    15   1
    25    17    26   1
    26    17    29   1
    27    18    19   1
    28    24    18   1
    29    22    21   1
    30    22    23   1
    31    22    24   1
    32    22    25   1
    33    23    35  am
    34    23    36   2
    35    24    25   1
    36    26    27   2
    37    27    28  ar
    38    27    30  ar
    39    28    29   2
    40    28    33  ar
    41    30    31  ar
    42    31    32  ar
    43    32    33  ar
    44    33    34   1
    45    34    43   1
    46    35    37  am
    47    37    38   1
    48    37    39   2
    49    37    40   2
    50    38    41   1
    51    38    42   1
    52    41    42   1
    53    43    44   1
    54    44    45   1
    55    45    46   1
    56    46    47   1
    57    46    48   1
    58    46    49   1
    59     4    54   1
    60     5    55   1
    61     5    56   1
    62     6    57   1
    63     9    58   1
    64    10    59   1
    65    18    60   1
    66    18    61   1
    67    19    62   1
    68    19    63   1
    69    19    64   1
    70    20    65   1
    71    20    66   1
    72    20    67   1
    73    21    68   1
    74    24    69   1
    75    25    70   1
    76    25    71   1
    77    26    72   1
    78    29    73   1
    79    30    74   1
    80    31    75   1
    81    32    76   1
    82    34    77   1
    83    34    78   1
    84    35    79   1
    85    38    80   1
    86    41    81   1
    87    41    82   1
    88    42    83   1
    89    42    84   1
    90    43    85   1
    91    43    86   1
    92    44    87   1
    93    44    88   1
    94    45    89   1
    95    45    90   1
    96    47    91   1
    97    47    92   1
    98    48    93   1
    99    48    94   1
   100    48    95   1
   101    49    96   1
   102    49    97   1
   103    49    98   1
   104    50    99   1
   105    50   100   1
   106    50   101   1
   107    51   102   1
   108    51   103   1
   109    51   104   1
   110    52   105   1
   111    52   106   1
@<TRIPOS>SUBSTRUCTURE
     1  SU3      1

