@<TRIPOS>MOLECULE
3su5_ligand_063
   106   111
SMALL
GAST_HUCK
****
This file was generated by PARSER (from files_GN.cpp)

@<TRIPOS>ATOM
      1 C         -18.9505  -14.2770   18.8624 C.2         1 SU3       0.2013
      2 N         -17.0522  -15.6957   18.5156 N.am        1 SU3      -0.2469
      3 O         -18.4790  -13.5422   19.7240 O.2         1 SU3      -0.3947
      4 CA        -18.4749  -15.6577   18.7652 C.3         1 SU3       0.1363
      5 CB        -18.7170  -16.4865   20.0492 C.3         1 SU3       0.0206
      6 CG        -17.3308  -16.6741   20.6963 C.3         1 SU3       0.1158
      7 CAF       -16.5041  -15.3841   17.3232 C.2         1 SU3       0.2070
      8 OAG       -17.2698  -15.2295   16.3777 O.2         1 SU3      -0.3942
      9 CAH       -15.0693  -15.3418   16.9897 C.3         1 SU3       0.1378
     10 NAI       -14.8144  -16.4750   16.1332 N.am        1 SU3      -0.2407
     11 CAJ       -13.9012  -17.4513   16.3602 C.2         1 SU3       0.3218
     12 OAK       -13.7007  -18.3903   15.3969 O.3         1 SU3      -0.2633
     13 CAL       -14.4972  -13.9609   16.4120 C.3         1 SU3       0.0025
     14 OAM       -13.1404  -17.4649   17.4814 O.2         1 SU3      -0.3774
     15 CAO       -17.6347  -18.9221   21.8141 C.2         1 SU3       0.4317
     16 OAP       -18.5713  -18.4641   22.6786 O.2         1 SU3      -0.3166
     17 NAQ       -17.2890  -20.2347   21.7864 N.am        1 SU3      -0.2080
     18 CAR       -19.2162   -9.9334   17.9054 C.3         1 SU3      -0.0516
     19 CAS       -18.7070   -9.6830   19.3374 C.3         1 SU3      -0.0651
     20 CAT       -15.5365  -13.0827   15.6309 C.3         1 SU3      -0.0558
     21 NAV       -19.8347  -13.8233   17.9818 N.am        1 SU3      -0.2737
     22 CAX       -20.2736  -12.4697   17.8499 C.3         1 SU3       0.1374
     23 CAY       -21.6186  -12.1813   18.3037 C.2         1 SU3       0.2444
     24 CAZ       -19.1636  -11.4321   17.5381 C.3         1 SU3      -0.0066
     25 CBA       -20.0643  -11.9411   16.4083 C.3         1 SU3      -0.0152
     26 CBB       -17.7535  -21.2048   22.6054 C.2         1 SU3       0.0383
     27 CBC       -17.1716  -22.4153   22.2402 C.ar        1 SU3      -0.0374
     28 CBD       -16.3395  -22.1646   21.1516 C.ar        1 SU3      -0.0293
     29 CBE       -16.4294  -20.7976   20.9049 C.2         1 SU3       0.0366
     30 CBF       -17.3078  -23.7076   22.7705 C.ar        1 SU3      -0.0689
     31 CBG       -16.5777  -24.7570   22.1770 C.ar        1 SU3      -0.0688
     32 CBH       -15.7408  -24.5074   21.0664 C.ar        1 SU3      -0.0606
     33 CBI       -15.6103  -23.2043   20.5232 C.ar        1 SU3      -0.0432
     34 CBJ       -14.7650  -22.9504   19.3237 C.3         1 SU3      -0.0194
     35 NBK       -22.6411  -12.8670   17.8089 N.am        1 SU3      -0.1552
     36 OBL       -21.7653  -11.3383   19.1764 O.2         1 SU3      -0.3404
     37 SBM       -24.2688  -12.6973   18.2287 S.o2        1 SU3       0.0645
     38 CBN       -25.1273  -14.2680   18.4685 C.3         1 SU3       0.1004
     39 OBO       -24.4086  -11.9607   19.6303 O.2         1 SU3      -0.1503
     40 OBP       -25.0595  -11.8397   17.1456 O.2         1 SU3      -0.1503
     41 CBQ       -24.7292  -15.4522   17.5764 C.3         1 SU3      -0.0268
     42 CBR       -24.3436  -15.4466   19.0628 C.3         1 SU3      -0.0268
     43 CBS       -15.6209  -22.7694   18.0386 C.3         1 SU3      -0.0433
     44 CBT       -14.8009  -22.5760   16.7326 C.3         1 SU3      -0.0507
     45 CBU       -14.1133  -21.1835   16.6034 C.3         1 SU3      -0.0453
     46 CBV       -13.3153  -20.8813   15.2789 C.3         1 SU3      -0.0072
     47 CBW       -12.7106  -19.4367   15.3754 C.3         1 SU3       0.0824
     48 CBX       -12.1340  -21.8934   15.1034 C.3         1 SU3      -0.0574
     49 CBY       -14.2336  -20.9553   14.0167 C.3         1 SU3      -0.0574
     50 CBZ       -13.9561  -13.0881   17.5995 C.3         1 SU3      -0.0558
     51 CCA       -13.2957  -14.2045   15.4330 C.3         1 SU3      -0.0558
     52 CD1       -16.3178  -16.1144   19.6715 C.3         1 SU3       0.0677
     53 OD2       -17.0562  -18.0632   20.9329 O.3         1 SU3      -0.2338
     54 H1        -18.9987  -16.1770   17.9526 H           1 SU3       0.0803
     55 H2        -19.1379  -17.4586   19.7742 H           1 SU3       0.0342
     56 H3        -19.4160  -16.0106   20.7435 H           1 SU3       0.0342
     57 H4        -17.2598  -16.1151   21.6352 H           1 SU3       0.0673
     58 H5        -14.5173  -15.5134   17.9105 H           1 SU3       0.0805
     59 H6        -15.2893  -16.5048   15.2877 H           1 SU3       0.1899
     60 H7        -18.5598   -9.4025   17.2130 H           1 SU3       0.0265
     61 H8        -20.2232   -9.5301   17.8026 H           1 SU3       0.0265
     62 H9        -18.7260   -8.6158   19.5627 H           1 SU3       0.0230
     63 H10       -17.6799  -10.0383   19.4422 H           1 SU3       0.0230
     64 H11       -19.3420  -10.2036   20.0551 H           1 SU3       0.0230
     65 H12       -15.0832  -12.1595   15.2571 H           1 SU3       0.0237
     66 H13       -16.3636  -12.7934   16.2794 H           1 SU3       0.0237
     67 H14       -15.9417  -13.6273   14.7748 H           1 SU3       0.0237
     68 H15       -20.1560  -14.4470   17.3119 H           1 SU3       0.1839
     69 H16       -18.1589  -11.8522   17.4947 H           1 SU3       0.0312
     70 H17       -20.7722  -11.2053   16.0188 H           1 SU3       0.0279
     71 H18       -19.5546  -12.5901   15.6944 H           1 SU3       0.0279
     72 H19       -18.4205  -21.0854   23.3713 H           1 SU3       0.0373
     73 H20       -15.9282  -20.3055   20.1609 H           1 SU3       0.0361
     74 H21       -17.9199  -23.8841   23.5704 H           1 SU3       0.0557
     75 H22       -16.6605  -25.7050   22.5492 H           1 SU3       0.0599
     76 H23       -15.2359  -25.2921   20.6485 H           1 SU3       0.0557
     77 H24       -14.0733  -23.7832   19.1664 H           1 SU3       0.0426
     78 H25       -14.1548  -22.0635   19.5039 H           1 SU3       0.0426
     79 H26       -22.4443  -13.5406   17.1356 H           1 SU3       0.2148
     80 H27       -26.1817  -14.2336   18.7478 H           1 SU3       0.0559
     81 H28       -23.8973  -15.3124   16.8836 H           1 SU3       0.0285
     82 H29       -25.5327  -16.1415   17.3112 H           1 SU3       0.0285
     83 H30       -24.9185  -16.1311   19.6891 H           1 SU3       0.0285
     84 H31       -23.2830  -15.2914   19.2713 H           1 SU3       0.0285
     85 H32       -16.3003  -21.9223   18.1580 H           1 SU3       0.0287
     86 H33       -16.2367  -23.6646   17.9144 H           1 SU3       0.0287
     87 H34       -15.4901  -22.7030   15.8962 H           1 SU3       0.0267
     88 H35       -14.0544  -23.3697   16.6704 H           1 SU3       0.0267
     89 H36       -13.4261  -21.0727   17.4459 H           1 SU3       0.0271
     90 H37       -14.8883  -20.4212   16.7236 H           1 SU3       0.0271
     91 H38       -12.0679  -19.3744   16.2556 H           1 SU3       0.0617
     92 H39       -12.0759  -19.2420   14.5077 H           1 SU3       0.0617
     93 H40       -12.5015  -22.9084   14.9412 H           1 SU3       0.0236
     94 H41       -11.4928  -21.9018   15.9874 H           1 SU3       0.0236
     95 H42       -11.5162  -21.6280   14.2418 H           1 SU3       0.0236
     96 H43       -15.1096  -20.3147   14.1359 H           1 SU3       0.0236
     97 H44       -14.5790  -21.9748   13.8375 H           1 SU3       0.0236
     98 H45       -13.6916  -20.6303   13.1255 H           1 SU3       0.0236
     99 H46       -13.1029  -13.5791   18.0759 H           1 SU3       0.0237
    100 H47       -14.7316  -12.9444   18.3558 H           1 SU3       0.0237
    101 H48       -13.6227  -12.1029   17.2606 H           1 SU3       0.0237
    102 H49       -13.6378  -14.7018   14.5209 H           1 SU3       0.0237
    103 H50       -12.5382  -14.8352   15.9020 H           1 SU3       0.0237
    104 H51       -12.8175  -13.2663   15.1399 H           1 SU3       0.0237
    105 H52       -15.7768  -15.2620   20.0946 H           1 SU3       0.0553
    106 H53       -15.5955  -16.8915   19.4072 H           1 SU3       0.0553
@<TRIPOS>BOND
     1     1     3   2
     2     1     4   1
     3    21     1  am
     4     4     2   1
     5     2     7  am
     6     2    52   1
     7     4     5   1
     8     5     6   1
     9     6    52   1
    10     6    53   1
    11     7     8   2
    12     7     9   1
    13     9    10   1
    14     9    13   1
    15    10    11  am
    16    11    12   1
    17    11    14   2
    18    12    47   1
    19    13    20   1
    20    13    50   1
    21    13    51   1
    22    15    16   2
    23    15    17  am
    24    53    15   1
    25    17    26   1
    26    17    29   1
    27    18    19   1
    28    24    18   1
    29    22    21   1
    30    22    23   1
    31    22    24   1
    32    22    25   1
    33    23    35  am
    34    23    36   2
    35    24    25   1
    36    26    27   2
    37    27    28  ar
    38    27    30  ar
    39    28    29   2
    40    28    33  ar
    41    30    31  ar
    42    31    32  ar
    43    32    33  ar
    44    33    34   1
    45    34    43   1
    46    35    37  am
    47    37    38   1
    48    37    39   2
    49    37    40   2
    50    38    41   1
    51    38    42   1
    52    41    42   1
    53    43    44   1
    54    44    45   1
    55    45    46   1
    56    46    47   1
    57    46    48   1
    58    46    49   1
    59     4    54   1
    60     5    55   1
    61     5    56   1
    62     6    57   1
    63     9    58   1
    64    10    59   1
    65    18    60   1
    66    18    61   1
    67    19    62   1
    68    19    63   1
    69    19    64   1
    70    20    65   1
    71    20    66   1
    72    20    67   1
    73    21    68   1
    74    24    69   1
    75    25    70   1
    76    25    71   1
    77    26    72   1
    78    29    73   1
    79    30    74   1
    80    31    75   1
    81    32    76   1
    82    34    77   1
    83    34    78   1
    84    35    79   1
    85    38    80   1
    86    41    81   1
    87    41    82   1
    88    42    83   1
    89    42    84   1
    90    43    85   1
    91    43    86   1
    92    44    87   1
    93    44    88   1
    94    45    89   1
    95    45    90   1
    96    47    91   1
    97    47    92   1
    98    48    93   1
    99    48    94   1
   100    48    95   1
   101    49    96   1
   102    49    97   1
   103    49    98   1
   104    50    99   1
   105    50   100   1
   106    50   101   1
   107    51   102   1
   108    51   103   1
   109    51   104   1
   110    52   105   1
   111    52   106   1
@<TRIPOS>SUBSTRUCTURE
     1  SU3      1

