@<TRIPOS>MOLECULE
3su5_ligand_013
   106   111
SMALL
GAST_HUCK
****
This file was generated by PARSER (from files_GN.cpp)

@<TRIPOS>ATOM
      1 C         -12.0241   -7.9401   11.9545 C.2         1 SU3       0.2013
      2 N         -12.1771  -10.1121   10.8921 N.am        1 SU3      -0.2469
      3 O         -13.0767   -7.4563   11.5561 O.2         1 SU3      -0.3947
      4 CA        -11.3648   -8.9336   11.1036 C.3         1 SU3       0.1363
      5 CB        -11.0391   -8.3759    9.6931 C.3         1 SU3       0.0206
      6 CG        -11.3206   -9.5503    8.7412 C.3         1 SU3       0.1158
      7 CAF       -12.6426  -10.8828   11.8962 C.2         1 SU3       0.2070
      8 OAG       -12.2214  -10.6621   13.0270 O.2         1 SU3      -0.3942
      9 CAH       -13.6045  -11.9919   11.7806 C.3         1 SU3       0.1378
     10 NAI       -12.9381  -13.1742   12.2556 N.am        1 SU3      -0.2407
     11 CAJ       -12.6369  -14.2854   11.5499 C.2         1 SU3       0.3218
     12 OAK       -12.0447  -15.2921   12.2412 O.3         1 SU3      -0.2633
     13 CAL       -14.9913  -11.7680   12.5203 C.3         1 SU3       0.0025
     14 OAM       -12.9195  -14.4080   10.2310 O.2         1 SU3      -0.3774
     15 CAO        -9.0398  -10.0153    7.7878 C.2         1 SU3       0.4317
     16 OAP        -8.9747   -8.8015    7.1878 O.2         1 SU3      -0.3166
     17 NAQ        -8.0170  -10.8983    7.6619 N.am        1 SU3      -0.2080
     18 CAR       -12.6067   -6.9483   16.8647 C.3         1 SU3      -0.0516
     19 CAS       -11.8154   -6.8870   18.1863 C.3         1 SU3      -0.0651
     20 CAT       -15.6926  -10.4839   11.9638 C.3         1 SU3      -0.0558
     21 NAV       -11.5487   -7.6815   13.1702 N.am        1 SU3      -0.2737
     22 CAX       -12.0873   -6.8226   14.1927 C.3         1 SU3       0.1374
     23 CAY       -13.3568   -6.1404   14.0118 C.2         1 SU3       0.2444
     24 CAZ       -11.6967   -7.2349   15.6391 C.3         1 SU3      -0.0066
     25 CBA       -10.9975   -6.0449   14.9690 C.3         1 SU3      -0.0152
     26 CBB        -6.8618  -10.6882    6.9900 C.2         1 SU3       0.0383
     27 CBC        -6.0877  -11.8401    7.0558 C.ar        1 SU3      -0.0374
     28 CBD        -6.7979  -12.7768    7.8047 C.ar        1 SU3      -0.0293
     29 CBE        -7.9891  -12.1517    8.1710 C.2         1 SU3       0.0366
     30 CBF        -4.8333  -12.1471    6.5022 C.ar        1 SU3      -0.0689
     31 CBG        -4.3039  -13.4345    6.7146 C.ar        1 SU3      -0.0688
     32 CBH        -5.0224  -14.3884    7.4683 C.ar        1 SU3      -0.0606
     33 CBI        -6.2873  -14.0778    8.0326 C.ar        1 SU3      -0.0432
     34 CBJ        -7.0480  -15.0919    8.8130 C.3         1 SU3      -0.0194
     35 NBK       -13.3790   -4.9390   13.4592 N.am        1 SU3      -0.1552
     36 OBL       -14.3823   -6.7498   14.2897 O.2         1 SU3      -0.3404
     37 SBM       -14.7819   -4.0455   13.1839 S.o2        1 SU3       0.0645
     38 CBN       -15.7226   -3.6939   14.6893 C.3         1 SU3       0.1004
     39 OBO       -14.3298   -2.6763   12.5133 O.2         1 SU3      -0.1503
     40 OBP       -15.6707   -4.7852   12.0918 O.2         1 SU3      -0.1503
     41 CBQ       -14.9422   -3.7251   16.0158 C.3         1 SU3      -0.0268
     42 CBR       -15.4388   -2.3931   15.4536 C.3         1 SU3      -0.0268
     43 CBS        -7.0062  -14.8126   10.3399 C.3         1 SU3      -0.0433
     44 CBT        -7.7217  -15.8830   11.2109 C.3         1 SU3      -0.0507
     45 CBU        -9.2768  -15.8171   11.1426 C.3         1 SU3      -0.0453
     46 CBV       -10.0924  -16.8284   12.0323 C.3         1 SU3      -0.0072
     47 CBW       -11.6234  -16.5868   11.7864 C.3         1 SU3       0.0824
     48 CBX        -9.7644  -18.3046   11.6335 C.3         1 SU3      -0.0574
     49 CBY        -9.7869  -16.6324   13.5542 C.3         1 SU3      -0.0574
     50 CBZ       -15.9337  -12.9879   12.2352 C.3         1 SU3      -0.0558
     51 CCA       -14.8629  -11.6262   14.0768 C.3         1 SU3      -0.0558
     52 CD1       -12.3804  -10.3763    9.4973 C.3         1 SU3       0.0677
     53 OD2       -10.1486  -10.3492    8.5049 O.3         1 SU3      -0.2338
     54 H1        -10.4230   -9.2590   11.5585 H           1 SU3       0.0803
     55 H2        -10.0016   -8.0383    9.6353 H           1 SU3       0.0342
     56 H3        -11.6841   -7.5363    9.4121 H           1 SU3       0.0342
     57 H4        -11.7206   -9.2048    7.7821 H           1 SU3       0.0673
     58 H5        -13.8580  -12.1305   10.7287 H           1 SU3       0.0805
     59 H6        -12.6803  -13.1803   13.1913 H           1 SU3       0.1899
     60 H7        -13.1464   -6.0079   16.7491 H           1 SU3       0.0265
     61 H8        -13.3466   -7.7465   16.9291 H           1 SU3       0.0265
     62 H9        -12.5056   -6.7602   19.0196 H           1 SU3       0.0230
     63 H10       -11.1269   -6.0403   18.1706 H           1 SU3       0.0230
     64 H11       -11.2524   -7.8077   18.3470 H           1 SU3       0.0230
     65 H12       -16.6652  -10.3310   12.4374 H           1 SU3       0.0237
     66 H13       -15.8490  -10.5632   10.8853 H           1 SU3       0.0237
     67 H14       -15.0882   -9.5950   12.1535 H           1 SU3       0.0237
     68 H15       -10.7559   -8.1783   13.4266 H           1 SU3       0.1839
     69 H16       -11.0686   -8.1257   15.7072 H           1 SU3       0.0312
     70 H17       -11.2585   -5.0586   15.3595 H           1 SU3       0.0279
     71 H18        -9.9588   -6.2306   14.6868 H           1 SU3       0.0279
     72 H19        -6.5945   -9.8340    6.4939 H           1 SU3       0.0373
     73 H20        -8.7340  -12.5900    8.7175 H           1 SU3       0.0361
     74 H21        -4.3221  -11.4565    5.9489 H           1 SU3       0.0557
     75 H22        -3.3960  -13.6820    6.3146 H           1 SU3       0.0599
     76 H23        -4.6119  -15.3157    7.6034 H           1 SU3       0.0557
     77 H24        -6.6396  -16.0900    8.6343 H           1 SU3       0.0426
     78 H25        -8.0799  -15.1033    8.4568 H           1 SU3       0.0426
     79 H26       -12.5331   -4.5244   13.2278 H           1 SU3       0.2148
     80 H27       -16.7494   -4.0588   14.7551 H           1 SU3       0.0559
     81 H28       -13.8562   -3.8211   15.9832 H           1 SU3       0.0285
     82 H29       -15.4747   -4.0618   16.9054 H           1 SU3       0.0285
     83 H30       -16.2719   -1.9529   16.0037 H           1 SU3       0.0285
     84 H31       -14.6350   -1.7498   15.0951 H           1 SU3       0.0285
     85 H32        -7.4523  -13.8387   10.5434 H           1 SU3       0.0287
     86 H33        -5.9588  -14.7667   10.6537 H           1 SU3       0.0287
     87 H34        -7.4085  -15.7268   12.2448 H           1 SU3       0.0267
     88 H35        -7.3713  -16.8715   10.9086 H           1 SU3       0.0267
     89 H36        -9.5726  -15.9657   10.1015 H           1 SU3       0.0271
     90 H37        -9.5729  -14.8002   11.4124 H           1 SU3       0.0271
     91 H38       -11.8607  -16.7233   10.7272 H           1 SU3       0.0617
     92 H39       -12.2121  -17.3182   12.3453 H           1 SU3       0.0617
     93 H40        -8.7290  -18.5573   11.8677 H           1 SU3       0.0236
     94 H41        -9.9212  -18.4597   10.5636 H           1 SU3       0.0236
     95 H42       -10.4032  -19.0056   12.1756 H           1 SU3       0.0236
     96 H43        -9.9358  -15.5924   13.8523 H           1 SU3       0.0236
     97 H44        -8.7583  -16.9063   13.7917 H           1 SU3       0.0236
     98 H45       -10.4432  -17.2585   14.1634 H           1 SU3       0.0236
     99 H46       -15.5135  -13.9098   12.6420 H           1 SU3       0.0237
    100 H47       -16.0802  -13.1269   11.1616 H           1 SU3       0.0237
    101 H48       -16.9158  -12.8426   12.6914 H           1 SU3       0.0237
    102 H49       -14.3395  -10.7113   14.3549 H           1 SU3       0.0237
    103 H50       -14.3264  -12.4752   14.5038 H           1 SU3       0.0237
    104 H51       -15.8483  -11.5831   14.5461 H           1 SU3       0.0237
    105 H52       -13.3894  -10.0645    9.2110 H           1 SU3       0.0553
    106 H53       -12.2479  -11.4340    9.2516 H           1 SU3       0.0553
@<TRIPOS>BOND
     1     1     3   2
     2     1     4   1
     3    21     1  am
     4     4     2   1
     5     2     7  am
     6     2    52   1
     7     4     5   1
     8     5     6   1
     9     6    52   1
    10     6    53   1
    11     7     8   2
    12     7     9   1
    13     9    10   1
    14     9    13   1
    15    10    11  am
    16    11    12   1
    17    11    14   2
    18    12    47   1
    19    13    20   1
    20    13    50   1
    21    13    51   1
    22    15    16   2
    23    15    17  am
    24    53    15   1
    25    17    26   1
    26    17    29   1
    27    18    19   1
    28    24    18   1
    29    22    21   1
    30    22    23   1
    31    22    24   1
    32    22    25   1
    33    23    35  am
    34    23    36   2
    35    24    25   1
    36    26    27   2
    37    27    28  ar
    38    27    30  ar
    39    28    29   2
    40    28    33  ar
    41    30    31  ar
    42    31    32  ar
    43    32    33  ar
    44    33    34   1
    45    34    43   1
    46    35    37  am
    47    37    38   1
    48    37    39   2
    49    37    40   2
    50    38    41   1
    51    38    42   1
    52    41    42   1
    53    43    44   1
    54    44    45   1
    55    45    46   1
    56    46    47   1
    57    46    48   1
    58    46    49   1
    59     4    54   1
    60     5    55   1
    61     5    56   1
    62     6    57   1
    63     9    58   1
    64    10    59   1
    65    18    60   1
    66    18    61   1
    67    19    62   1
    68    19    63   1
    69    19    64   1
    70    20    65   1
    71    20    66   1
    72    20    67   1
    73    21    68   1
    74    24    69   1
    75    25    70   1
    76    25    71   1
    77    26    72   1
    78    29    73   1
    79    30    74   1
    80    31    75   1
    81    32    76   1
    82    34    77   1
    83    34    78   1
    84    35    79   1
    85    38    80   1
    86    41    81   1
    87    41    82   1
    88    42    83   1
    89    42    84   1
    90    43    85   1
    91    43    86   1
    92    44    87   1
    93    44    88   1
    94    45    89   1
    95    45    90   1
    96    47    91   1
    97    47    92   1
    98    48    93   1
    99    48    94   1
   100    48    95   1
   101    49    96   1
   102    49    97   1
   103    49    98   1
   104    50    99   1
   105    50   100   1
   106    50   101   1
   107    51   102   1
   108    51   103   1
   109    51   104   1
   110    52   105   1
   111    52   106   1
@<TRIPOS>SUBSTRUCTURE
     1  SU3      1

