@<TRIPOS>MOLECULE
3su5_ligand_087
   106   111
SMALL
GAST_HUCK
****
This file was generated by PARSER (from files_GN.cpp)

@<TRIPOS>ATOM
      1 C         -17.7154  -11.9836   16.0195 C.2         1 SU3       0.2013
      2 N         -15.3569  -12.3906   15.3387 N.am        1 SU3      -0.2469
      3 O         -17.6581  -10.8969   15.4512 O.2         1 SU3      -0.3947
      4 CA        -16.5794  -12.9073   15.9317 C.3         1 SU3       0.1363
      5 CB        -16.1628  -13.3922   17.3429 C.3         1 SU3       0.0206
      6 CG        -14.6405  -13.5746   17.2703 C.3         1 SU3       0.1158
      7 CAF       -15.2925  -11.8781   14.0905 C.2         1 SU3       0.2070
      8 OAG       -16.2866  -11.9810   13.3838 O.2         1 SU3      -0.3942
      9 CAH       -14.1350  -11.1851   13.4901 C.3         1 SU3       0.1378
     10 NAI       -13.8028  -11.8510   12.2561 N.am        1 SU3      -0.2407
     11 CAJ       -12.6771  -12.5523   11.9939 C.2         1 SU3       0.3218
     12 OAK       -12.5597  -13.0807   10.7484 O.3         1 SU3      -0.2633
     13 CAL       -14.3293   -9.6250   13.2710 C.3         1 SU3       0.0025
     14 OAM       -11.7057  -12.7393   12.9173 O.2         1 SU3      -0.3774
     15 CAO       -14.3708  -16.0651   17.5453 C.2         1 SU3       0.4317
     16 OAP       -14.8826  -16.0543   18.8028 O.2         1 SU3      -0.3166
     17 NAQ       -13.9444  -17.2245   16.9856 N.am        1 SU3      -0.2080
     18 CAR       -22.2699  -11.5835   18.3669 C.3         1 SU3      -0.0516
     19 CAS       -23.1165  -12.7702   17.8574 C.3         1 SU3      -0.0651
     20 CAT       -14.5448   -8.9094   14.6498 C.3         1 SU3      -0.0558
     21 NAV       -18.7860  -12.3156   16.7382 N.am        1 SU3      -0.2737
     22 CAX       -19.9266  -11.4799   16.9536 C.3         1 SU3       0.1374
     23 CAY       -20.6604  -11.0556   15.7803 C.2         1 SU3       0.2444
     24 CAZ       -20.7516  -11.8461   18.2099 C.3         1 SU3      -0.0066
     25 CBA       -19.8697  -10.5853   18.2132 C.3         1 SU3      -0.0152
     26 CBB       -14.0010  -18.4519   17.5456 C.2         1 SU3       0.0383
     27 CBC       -13.4541  -19.3723   16.6621 C.ar        1 SU3      -0.0374
     28 CBD       -13.0525  -18.6764   15.5244 C.ar        1 SU3      -0.0293
     29 CBE       -13.3765  -17.3419   15.7593 C.2         1 SU3       0.0366
     30 CBF       -13.2695  -20.7625   16.7657 C.ar        1 SU3      -0.0689
     31 CBG       -12.6474  -21.4370   15.6963 C.ar        1 SU3      -0.0688
     32 CBH       -12.2311  -20.7310   14.5471 C.ar        1 SU3      -0.0606
     33 CBI       -12.4351  -19.3315   14.4317 C.ar        1 SU3      -0.0432
     34 CBJ       -12.0153  -18.5933   13.2116 C.3         1 SU3      -0.0194
     35 NBK       -20.6107   -9.7947   15.3807 N.am        1 SU3      -0.1552
     36 OBL       -21.2486  -11.9122   15.1277 O.2         1 SU3      -0.3404
     37 SBM       -21.4363   -9.1819   14.0441 S.o2        1 SU3       0.0645
     38 CBN       -23.2217   -9.0672   14.3337 C.3         1 SU3       0.1004
     39 OBO       -20.9004   -7.6992   13.8270 O.2         1 SU3      -0.1503
     40 OBP       -21.0315   -9.9803   12.7310 O.2         1 SU3      -0.1503
     41 CBQ       -24.1156   -8.7861   13.1175 C.3         1 SU3      -0.0268
     42 CBR       -24.1235  -10.1774   13.7715 C.3         1 SU3      -0.0268
     43 CBS       -13.2228  -18.2368   12.2974 C.3         1 SU3      -0.0433
     44 CBT       -12.8343  -17.5504   10.9576 C.3         1 SU3      -0.0507
     45 CBU       -12.3405  -16.0814   11.1079 C.3         1 SU3      -0.0453
     46 CBV       -11.9369  -15.3057    9.7981 C.3         1 SU3      -0.0072
     47 CBW       -11.4819  -13.8563   10.1958 C.3         1 SU3       0.0824
     48 CBX       -10.7396  -16.0119    9.0784 C.3         1 SU3      -0.0574
     49 CBY       -13.1357  -15.2027    8.7997 C.3         1 SU3      -0.0574
     50 CBZ       -13.0240   -9.0247   12.6389 C.3         1 SU3      -0.0558
     51 CCA       -15.5279   -9.2688   12.3278 C.3         1 SU3      -0.0558
     52 CD1       -14.2171  -12.5620   16.1928 C.3         1 SU3       0.0677
     53 OD2       -14.2642  -14.8983   16.8544 O.3         1 SU3      -0.2338
     54 H1        -16.8790  -13.7812   15.3393 H           1 SU3       0.0803
     55 H2        -16.6702  -14.3187   17.6159 H           1 SU3       0.0342
     56 H3        -16.3843  -12.6457   18.1084 H           1 SU3       0.0342
     57 H4        -14.1512  -13.3475   18.2251 H           1 SU3       0.0673
     58 H5        -13.2816  -11.2659   14.1666 H           1 SU3       0.0805
     59 H6        -14.4587  -11.8037   11.5442 H           1 SU3       0.1899
     60 H7        -22.4779  -11.4281   19.4272 H           1 SU3       0.0265
     61 H8        -22.5640  -10.6777   17.8284 H           1 SU3       0.0265
     62 H9        -24.1708  -12.5654   18.0493 H           1 SU3       0.0230
     63 H10       -22.8360  -13.6933   18.3705 H           1 SU3       0.0230
     64 H11       -22.9784  -12.9046   16.7832 H           1 SU3       0.0230
     65 H12       -14.6045   -7.8241   14.5286 H           1 SU3       0.0237
     66 H13       -13.7221   -9.1277   15.3363 H           1 SU3       0.0237
     67 H14       -15.4710   -9.2388   15.1206 H           1 SU3       0.0237
     68 H15       -18.7852  -13.1853   17.1755 H           1 SU3       0.1839
     69 H16       -20.3222  -12.6293   18.8333 H           1 SU3       0.0312
     70 H17       -20.3763   -9.6209   18.1502 H           1 SU3       0.0279
     71 H18       -18.9646  -10.6488   18.8224 H           1 SU3       0.0279
     72 H19       -14.3799  -18.6816   18.4681 H           1 SU3       0.0373
     73 H20       -13.1993  -16.5718   15.1076 H           1 SU3       0.0361
     74 H21       -13.5734  -21.2693   17.6023 H           1 SU3       0.0557
     75 H22       -12.5043  -22.4504   15.7545 H           1 SU3       0.0599
     76 H23       -11.7916  -21.2523   13.7888 H           1 SU3       0.0557
     77 H24       -11.3086  -19.1949   12.6330 H           1 SU3       0.0426
     78 H25       -11.4867  -17.6873   13.5158 H           1 SU3       0.0426
     79 H26       -20.0872   -9.1681   15.9044 H           1 SU3       0.2148
     80 H27       -23.5644   -8.6063   15.2637 H           1 SU3       0.0559
     81 H28       -23.6362   -8.7444   12.1368 H           1 SU3       0.0285
     82 H29       -25.0045   -8.1817   13.3059 H           1 SU3       0.0285
     83 H30       -25.0099  -10.4128   14.3633 H           1 SU3       0.0285
     84 H31       -23.6439  -10.9653   13.1870 H           1 SU3       0.0285
     85 H32       -13.9238  -17.5945   12.8376 H           1 SU3       0.0287
     86 H33       -13.7504  -19.1653   12.0567 H           1 SU3       0.0287
     87 H34       -13.7224  -17.5570   10.3225 H           1 SU3       0.0267
     88 H35       -12.0717  -18.1569   10.4673 H           1 SU3       0.0267
     89 H36       -11.4781  -16.0816   11.7784 H           1 SU3       0.0271
     90 H37       -13.1350  -15.5247   11.6111 H           1 SU3       0.0271
     91 H38       -10.6418  -13.9099   10.8948 H           1 SU3       0.0617
     92 H39       -11.1295  -13.3188    9.3113 H           1 SU3       0.0617
     93 H40       -11.0257  -16.9951    8.6999 H           1 SU3       0.0236
     94 H41        -9.8975  -16.1430    9.7613 H           1 SU3       0.0236
     95 H42       -10.3941  -15.4236    8.2248 H           1 SU3       0.0236
     96 H43       -14.0154  -14.7853    9.2935 H           1 SU3       0.0236
     97 H44       -13.4043  -16.1821    8.3992 H           1 SU3       0.0236
     98 H45       -12.8819  -14.5583    7.9544 H           1 SU3       0.0236
     99 H46       -12.8379   -9.4530   11.6503 H           1 SU3       0.0237
    100 H47       -12.1549   -9.2341   13.2700 H           1 SU3       0.0237
    101 H48       -13.1017   -7.9384   12.5255 H           1 SU3       0.0237
    102 H49       -16.4804   -9.5647   12.7660 H           1 SU3       0.0237
    103 H50       -15.4237   -9.7660   11.3630 H           1 SU3       0.0237
    104 H51       -15.5741   -8.1928   12.1467 H           1 SU3       0.0237
    105 H52       -13.9540  -11.6054   16.6487 H           1 SU3       0.0553
    106 H53       -13.3499  -12.9579   15.6540 H           1 SU3       0.0553
@<TRIPOS>BOND
     1     1     3   2
     2     1     4   1
     3    21     1  am
     4     4     2   1
     5     2     7  am
     6     2    52   1
     7     4     5   1
     8     5     6   1
     9     6    52   1
    10     6    53   1
    11     7     8   2
    12     7     9   1
    13     9    10   1
    14     9    13   1
    15    10    11  am
    16    11    12   1
    17    11    14   2
    18    12    47   1
    19    13    20   1
    20    13    50   1
    21    13    51   1
    22    15    16   2
    23    15    17  am
    24    53    15   1
    25    17    26   1
    26    17    29   1
    27    18    19   1
    28    24    18   1
    29    22    21   1
    30    22    23   1
    31    22    24   1
    32    22    25   1
    33    23    35  am
    34    23    36   2
    35    24    25   1
    36    26    27   2
    37    27    28  ar
    38    27    30  ar
    39    28    29   2
    40    28    33  ar
    41    30    31  ar
    42    31    32  ar
    43    32    33  ar
    44    33    34   1
    45    34    43   1
    46    35    37  am
    47    37    38   1
    48    37    39   2
    49    37    40   2
    50    38    41   1
    51    38    42   1
    52    41    42   1
    53    43    44   1
    54    44    45   1
    55    45    46   1
    56    46    47   1
    57    46    48   1
    58    46    49   1
    59     4    54   1
    60     5    55   1
    61     5    56   1
    62     6    57   1
    63     9    58   1
    64    10    59   1
    65    18    60   1
    66    18    61   1
    67    19    62   1
    68    19    63   1
    69    19    64   1
    70    20    65   1
    71    20    66   1
    72    20    67   1
    73    21    68   1
    74    24    69   1
    75    25    70   1
    76    25    71   1
    77    26    72   1
    78    29    73   1
    79    30    74   1
    80    31    75   1
    81    32    76   1
    82    34    77   1
    83    34    78   1
    84    35    79   1
    85    38    80   1
    86    41    81   1
    87    41    82   1
    88    42    83   1
    89    42    84   1
    90    43    85   1
    91    43    86   1
    92    44    87   1
    93    44    88   1
    94    45    89   1
    95    45    90   1
    96    47    91   1
    97    47    92   1
    98    48    93   1
    99    48    94   1
   100    48    95   1
   101    49    96   1
   102    49    97   1
   103    49    98   1
   104    50    99   1
   105    50   100   1
   106    50   101   1
   107    51   102   1
   108    51   103   1
   109    51   104   1
   110    52   105   1
   111    52   106   1
@<TRIPOS>SUBSTRUCTURE
     1  SU3      1

