@<TRIPOS>MOLECULE
3su5_ligand_078
   106   111
SMALL
GAST_HUCK
****
This file was generated by PARSER (from files_GN.cpp)

@<TRIPOS>ATOM
      1 C         -18.0445  -18.0239   23.8036 C.2         1 SU3       0.2013
      2 N         -20.1316  -16.9990   23.3553 N.am        1 SU3      -0.2469
      3 O         -16.9992  -17.3972   23.6436 O.2         1 SU3      -0.3947
      4 CA        -19.1363  -17.9014   22.8394 C.3         1 SU3       0.1363
      5 CB        -18.7819  -17.2798   21.4661 C.3         1 SU3       0.0206
      6 CG        -18.9854  -15.7643   21.6455 C.3         1 SU3       0.1158
      7 CAF       -21.1527  -17.3741   24.1464 C.2         1 SU3       0.2070
      8 OAG       -21.3943  -18.5748   24.2914 O.2         1 SU3      -0.3942
      9 CAH       -22.0256  -16.4595   24.8917 C.3         1 SU3       0.1378
     10 NAI       -23.2630  -16.3733   24.1640 N.am        1 SU3      -0.2407
     11 CAJ       -23.8459  -15.2655   23.6544 C.2         1 SU3       0.3218
     12 OAK       -25.0773  -15.4325   23.1079 O.3         1 SU3      -0.2633
     13 CAL       -22.2630  -16.7990   26.4366 C.3         1 SU3       0.0025
     14 OAM       -23.2724  -14.0390   23.7475 O.2         1 SU3      -0.3774
     15 CAO       -18.9086  -14.8982   19.2732 C.2         1 SU3       0.4317
     16 OAP       -17.5993  -15.2047   19.1154 O.2         1 SU3      -0.3166
     17 NAQ       -19.6238  -14.3642   18.2495 N.am        1 SU3      -0.2080
     18 CAR       -15.7533  -17.8879   27.8315 C.3         1 SU3      -0.0516
     19 CAS       -16.0268  -17.2892   29.2259 C.3         1 SU3      -0.0651
     20 CAT       -21.1078  -17.6774   27.0291 C.3         1 SU3      -0.0558
     21 NAV       -18.1861  -18.8142   24.8597 N.am        1 SU3      -0.2737
     22 CAX       -17.1718  -19.0829   25.8336 C.3         1 SU3       0.1374
     23 CAY       -16.0663  -19.9014   25.3799 C.2         1 SU3       0.2444
     24 CAZ       -17.0757  -18.1324   27.0547 C.3         1 SU3      -0.0066
     25 CBA       -17.7414  -19.5060   27.2054 C.3         1 SU3      -0.0152
     26 CBB       -19.1703  -14.0336   17.0163 C.2         1 SU3       0.0383
     27 CBC       -20.2351  -13.5572   16.2570 C.ar        1 SU3      -0.0374
     28 CBD       -21.3708  -13.6078   17.0604 C.ar        1 SU3      -0.0293
     29 CBE       -20.9482  -14.0979   18.2917 C.2         1 SU3       0.0366
     30 CBF       -20.3093  -13.0879   14.9325 C.ar        1 SU3      -0.0689
     31 CBG       -21.5596  -12.6696   14.4363 C.ar        1 SU3      -0.0688
     32 CBH       -22.7126  -12.7296   15.2505 C.ar        1 SU3      -0.0606
     33 CBI       -22.6430  -13.2096   16.5847 C.ar        1 SU3      -0.0432
     34 CBJ       -23.8550  -13.2875   17.4464 C.3         1 SU3      -0.0194
     35 NBK       -14.8798  -19.3474   25.2106 N.am        1 SU3      -0.1552
     36 OBL       -16.3002  -21.0574   25.0539 O.2         1 SU3      -0.3404
     37 SBM       -13.5347  -20.1166   24.5500 S.o2        1 SU3       0.0645
     38 CBN       -13.4305  -20.1524   22.7464 C.3         1 SU3       0.1004
     39 OBO       -12.2776  -19.3277   25.1228 O.2         1 SU3      -0.1503
     40 OBP       -13.3634  -21.5745   25.1642 O.2         1 SU3      -0.1503
     41 CBQ       -14.6370  -20.6839   21.9626 C.3         1 SU3      -0.0268
     42 CBR       -14.3143  -19.1801   21.9519 C.3         1 SU3      -0.0268
     43 CBS       -24.3367  -14.7500   17.6693 C.3         1 SU3      -0.0433
     44 CBT       -25.5710  -14.8935   18.6031 C.3         1 SU3      -0.0507
     45 CBU       -25.2816  -14.6300   20.1134 C.3         1 SU3      -0.0453
     46 CBV       -26.4763  -14.8066   21.1249 C.3         1 SU3      -0.0072
     47 CBW       -25.9796  -14.4527   22.5710 C.3         1 SU3       0.0824
     48 CBX       -27.6501  -13.8344   20.7733 C.3         1 SU3      -0.0574
     49 CBY       -27.0172  -16.2745   21.1167 C.3         1 SU3      -0.0574
     50 CBZ       -22.3041  -15.4645   27.2636 C.3         1 SU3      -0.0558
     51 CCA       -23.6188  -17.5459   26.6972 C.3         1 SU3      -0.0558
     52 CD1       -19.9933  -15.6720   22.8118 C.3         1 SU3       0.0677
     53 OD2       -19.5158  -15.1380   20.4687 O.3         1 SU3      -0.2338
     54 H1        -19.5422  -18.9006   22.6436 H           1 SU3       0.0803
     55 H2        -19.4800  -17.6525   20.7121 H           1 SU3       0.0342
     56 H3        -17.7648  -17.5168   21.1435 H           1 SU3       0.0342
     57 H4        -18.0438  -15.2845   21.9315 H           1 SU3       0.0673
     58 H5        -21.5445  -15.4791   24.8762 H           1 SU3       0.0805
     59 H6        -23.7639  -17.2005   24.0672 H           1 SU3       0.1899
     60 H7        -15.1915  -18.8158   27.9499 H           1 SU3       0.0265
     61 H8        -15.1379  -17.1872   27.2620 H           1 SU3       0.0265
     62 H9        -15.0965  -17.2197   29.7912 H           1 SU3       0.0230
     63 H10       -16.7223  -17.9176   29.7853 H           1 SU3       0.0230
     64 H11       -16.4498  -16.2857   29.1264 H           1 SU3       0.0230
     65 H12       -21.1902  -17.7558   28.1215 H           1 SU3       0.0237
     66 H13       -20.1362  -17.2267   26.7879 H           1 SU3       0.0237
     67 H14       -21.1461  -18.6847   26.6117 H           1 SU3       0.0237
     68 H15       -19.0182  -19.3087   24.9405 H           1 SU3       0.1839
     69 H16       -17.7824  -17.2983   27.0387 H           1 SU3       0.0312
     70 H17       -17.1831  -20.2474   27.7874 H           1 SU3       0.0279
     71 H18       -18.8253  -19.4803   27.3255 H           1 SU3       0.0279
     72 H19       -18.2076  -14.1193   16.6814 H           1 SU3       0.0373
     73 H20       -21.5603  -14.2554   19.0930 H           1 SU3       0.0361
     74 H21       -19.4747  -13.0495   14.3430 H           1 SU3       0.0557
     75 H22       -21.6350  -12.3237   13.4752 H           1 SU3       0.0599
     76 H23       -23.6072  -12.4273   14.8589 H           1 SU3       0.0557
     77 H24       -24.6768  -12.7219   16.9976 H           1 SU3       0.0426
     78 H25       -23.6269  -12.8094   18.4010 H           1 SU3       0.0426
     79 H26       -14.7601  -18.4354   25.5243 H           1 SU3       0.2148
     80 H27       -12.4696  -20.3998   22.2908 H           1 SU3       0.0559
     81 H28       -15.5256  -20.9668   22.5309 H           1 SU3       0.0285
     82 H29       -14.4066  -21.2139   21.0350 H           1 SU3       0.0285
     83 H30       -13.8885  -18.7881   21.0220 H           1 SU3       0.0285
     84 H31       -15.0182  -18.5634   22.5129 H           1 SU3       0.0285
     85 H32       -23.5256  -15.3615   18.0693 H           1 SU3       0.0287
     86 H33       -24.6023  -15.1662   16.6926 H           1 SU3       0.0287
     87 H34       -25.9415  -15.9143   18.4910 H           1 SU3       0.0267
     88 H35       -26.3506  -14.2179   18.2464 H           1 SU3       0.0267
     89 H36       -24.9090  -13.6080   20.2071 H           1 SU3       0.0271
     90 H37       -24.4672  -15.2943   20.4162 H           1 SU3       0.0271
     91 H38       -25.5297  -13.4554   22.5850 H           1 SU3       0.0617
     92 H39       -26.8295  -14.4308   23.2562 H           1 SU3       0.0617
     93 H40       -28.1026  -14.0871   19.8133 H           1 SU3       0.0236
     94 H41       -27.2958  -12.8024   20.7243 H           1 SU3       0.0236
     95 H42       -28.4391  -13.8869   21.5270 H           1 SU3       0.0236
     96 H43       -26.2057  -16.9890   21.2697 H           1 SU3       0.0236
     97 H44       -27.5033  -16.5136   20.1703 H           1 SU3       0.0236
     98 H45       -27.7519  -16.4203   21.9115 H           1 SU3       0.0236
     99 H46       -23.1056  -14.8134   26.9008 H           1 SU3       0.0237
    100 H47       -21.3602  -14.9242   27.1691 H           1 SU3       0.0237
    101 H48       -22.4744  -15.6571   28.3257 H           1 SU3       0.0237
    102 H49       -23.6809  -18.4579   26.0986 H           1 SU3       0.0237
    103 H50       -24.4696  -16.9092   26.4364 H           1 SU3       0.0237
    104 H51       -23.7275  -17.8183   27.7511 H           1 SU3       0.0237
    105 H52       -19.6313  -14.9753   23.5740 H           1 SU3       0.0553
    106 H53       -20.9636  -15.3282   22.4433 H           1 SU3       0.0553
@<TRIPOS>BOND
     1     1     3   2
     2     1     4   1
     3    21     1  am
     4     4     2   1
     5     2     7  am
     6     2    52   1
     7     4     5   1
     8     5     6   1
     9     6    52   1
    10     6    53   1
    11     7     8   2
    12     7     9   1
    13     9    10   1
    14     9    13   1
    15    10    11  am
    16    11    12   1
    17    11    14   2
    18    12    47   1
    19    13    20   1
    20    13    50   1
    21    13    51   1
    22    15    16   2
    23    15    17  am
    24    53    15   1
    25    17    26   1
    26    17    29   1
    27    18    19   1
    28    24    18   1
    29    22    21   1
    30    22    23   1
    31    22    24   1
    32    22    25   1
    33    23    35  am
    34    23    36   2
    35    24    25   1
    36    26    27   2
    37    27    28  ar
    38    27    30  ar
    39    28    29   2
    40    28    33  ar
    41    30    31  ar
    42    31    32  ar
    43    32    33  ar
    44    33    34   1
    45    34    43   1
    46    35    37  am
    47    37    38   1
    48    37    39   2
    49    37    40   2
    50    38    41   1
    51    38    42   1
    52    41    42   1
    53    43    44   1
    54    44    45   1
    55    45    46   1
    56    46    47   1
    57    46    48   1
    58    46    49   1
    59     4    54   1
    60     5    55   1
    61     5    56   1
    62     6    57   1
    63     9    58   1
    64    10    59   1
    65    18    60   1
    66    18    61   1
    67    19    62   1
    68    19    63   1
    69    19    64   1
    70    20    65   1
    71    20    66   1
    72    20    67   1
    73    21    68   1
    74    24    69   1
    75    25    70   1
    76    25    71   1
    77    26    72   1
    78    29    73   1
    79    30    74   1
    80    31    75   1
    81    32    76   1
    82    34    77   1
    83    34    78   1
    84    35    79   1
    85    38    80   1
    86    41    81   1
    87    41    82   1
    88    42    83   1
    89    42    84   1
    90    43    85   1
    91    43    86   1
    92    44    87   1
    93    44    88   1
    94    45    89   1
    95    45    90   1
    96    47    91   1
    97    47    92   1
    98    48    93   1
    99    48    94   1
   100    48    95   1
   101    49    96   1
   102    49    97   1
   103    49    98   1
   104    50    99   1
   105    50   100   1
   106    50   101   1
   107    51   102   1
   108    51   103   1
   109    51   104   1
   110    52   105   1
   111    52   106   1
@<TRIPOS>SUBSTRUCTURE
     1  SU3      1

