@<TRIPOS>MOLECULE
3su5_ligand_077
   106   111
SMALL
GAST_HUCK
****
This file was generated by PARSER (from files_GN.cpp)

@<TRIPOS>ATOM
      1 C         -11.3679   -6.1445    9.6597 C.2         1 SU3       0.2013
      2 N         -13.7115   -5.9582    9.1586 N.am        1 SU3      -0.2469
      3 O         -10.9892   -4.9823    9.5279 O.2         1 SU3      -0.3947
      4 CA        -12.4813   -6.6425    8.8358 C.3         1 SU3       0.1363
      5 CB        -12.2708   -6.4353    7.3107 C.3         1 SU3       0.0206
      6 CG        -13.6230   -5.9104    6.7984 C.3         1 SU3       0.1158
      7 CAF       -14.2609   -5.9896   10.3892 C.2         1 SU3       0.2070
      8 OAG       -13.8470   -6.8335   11.1782 O.2         1 SU3      -0.3942
      9 CAH       -15.2698   -5.0552   10.9210 C.3         1 SU3       0.1378
     10 NAI       -16.3091   -5.8955   11.4586 N.am        1 SU3      -0.2407
     11 CAJ       -17.5706   -6.0397   11.0051 C.2         1 SU3       0.3218
     12 OAK       -18.3503   -6.9400   11.6566 O.3         1 SU3      -0.2633
     13 CAL       -14.7225   -3.9527   11.9513 C.3         1 SU3       0.0025
     14 OAM       -18.0431   -5.3402    9.9462 O.2         1 SU3      -0.3774
     15 CAO       -14.3762   -7.7172    5.2191 C.2         1 SU3       0.4317
     16 OAP       -13.3436   -7.4895    4.3716 O.2         1 SU3      -0.3166
     17 NAQ       -15.3066   -8.6640    4.9323 N.am        1 SU3      -0.2080
     18 CAR        -7.6752   -7.6379   12.7791 C.3         1 SU3      -0.0516
     19 CAS        -6.3229   -8.2337   12.3445 C.3         1 SU3      -0.0651
     20 CAT       -14.7449   -2.5264   11.2953 C.3         1 SU3      -0.0558
     21 NAV       -10.8643   -6.8874   10.6395 N.am        1 SU3      -0.2737
     22 CAX        -9.8506   -6.4672   11.5663 C.3         1 SU3       0.1374
     23 CAY       -10.2933   -6.0005   12.8700 C.2         1 SU3       0.2444
     24 CAZ        -8.5987   -7.3820   11.5546 C.3         1 SU3      -0.0066
     25 CBA        -8.5172   -5.9694   10.9540 C.3         1 SU3      -0.0152
     26 CBB       -15.3176   -9.4592    3.8378 C.2         1 SU3       0.0383
     27 CBC       -16.4329  -10.2839    3.8923 C.ar        1 SU3      -0.0374
     28 CBD       -17.1212   -9.9772    5.0667 C.ar        1 SU3      -0.0293
     29 CBE       -16.3906   -8.9632    5.6854 C.2         1 SU3       0.0366
     30 CBF       -16.9014  -11.2694    3.0087 C.ar        1 SU3      -0.0689
     31 CBG       -18.0891  -11.9507    3.3311 C.ar        1 SU3      -0.0688
     32 CBH       -18.7916  -11.6412    4.5198 C.ar        1 SU3      -0.0606
     33 CBI       -18.3177  -10.6463    5.4127 C.ar        1 SU3      -0.0432
     34 CBJ       -19.0621  -10.3214    6.6612 C.3         1 SU3      -0.0194
     35 NBK       -10.7525   -6.8647   13.7650 N.am        1 SU3      -0.1552
     36 OBL       -10.2476   -4.7999   13.1037 O.2         1 SU3      -0.3404
     37 SBM       -11.3111   -6.4828   15.3126 S.o2        1 SU3       0.0645
     38 CBN       -13.0544   -6.0457   15.5362 C.3         1 SU3       0.1004
     39 OBO       -10.9910   -7.7655   16.1937 O.2         1 SU3      -0.1503
     40 OBP       -10.3756   -5.3787   15.9680 O.2         1 SU3      -0.1503
     41 CBQ       -14.0690   -7.1989   15.4705 C.3         1 SU3      -0.0268
     42 CBR       -13.8136   -6.4720   16.8018 C.3         1 SU3      -0.0268
     43 CBS       -18.3744  -10.9029    7.9274 C.3         1 SU3      -0.0433
     44 CBT       -19.1487  -10.6517    9.2512 C.3         1 SU3      -0.0507
     45 CBU       -19.1133   -9.1757    9.7522 C.3         1 SU3      -0.0453
     46 CBV       -19.8684   -8.8429   11.0945 C.3         1 SU3      -0.0072
     47 CBW       -19.7121   -7.3093   11.3978 C.3         1 SU3       0.0824
     48 CBX       -21.3961   -9.1527   10.9662 C.3         1 SU3      -0.0574
     49 CBY       -19.2833   -9.6579   12.2943 C.3         1 SU3      -0.0574
     50 CBZ       -15.5971   -3.8699   13.2548 C.3         1 SU3      -0.0558
     51 CCA       -13.2419   -4.1783   12.4120 C.3         1 SU3      -0.0558
     52 CD1       -14.2409   -5.2420    8.0414 C.3         1 SU3       0.0677
     53 OD2       -14.4896   -6.9643    6.3471 O.3         1 SU3      -0.2338
     54 H1        -12.6295   -7.7155    9.0006 H           1 SU3       0.0803
     55 H2        -11.9796   -7.3636    6.8137 H           1 SU3       0.0342
     56 H3        -11.5029   -5.6858    7.0953 H           1 SU3       0.0342
     57 H4        -13.4962   -5.1777    5.9943 H           1 SU3       0.0673
     58 H5        -15.7057   -4.5119   10.0827 H           1 SU3       0.0805
     59 H6        -16.0603   -6.4461   12.2203 H           1 SU3       0.1899
     60 H7         -7.5006   -6.7208   13.3437 H           1 SU3       0.0265
     61 H8         -8.1789   -8.3424   13.4365 H           1 SU3       0.0265
     62 H9         -5.7035   -8.4075   13.2232 H           1 SU3       0.0230
     63 H10        -5.7989   -7.5503   11.6768 H           1 SU3       0.0230
     64 H11        -6.4753   -9.1832   11.8303 H           1 SU3       0.0230
     65 H12       -14.3824   -1.7587   11.9834 H           1 SU3       0.0237
     66 H13       -15.7554   -2.2524   10.9950 H           1 SU3       0.0237
     67 H14       -14.1115   -2.5056   10.4057 H           1 SU3       0.0237
     68 H15       -11.2392   -7.7676   10.7721 H           1 SU3       0.1839
     69 H16        -8.6359   -8.1691   10.7955 H           1 SU3       0.0312
     70 H17        -7.9798   -5.2084   11.5312 H           1 SU3       0.0279
     71 H18        -8.4602   -5.9323    9.8587 H           1 SU3       0.0279
     72 H19       -14.6290   -9.4593    3.0813 H           1 SU3       0.0373
     73 H20       -16.6472   -8.5152    6.5681 H           1 SU3       0.0361
     74 H21       -16.3915  -11.4862    2.1486 H           1 SU3       0.0557
     75 H22       -18.4490  -12.6720    2.7026 H           1 SU3       0.0599
     76 H23       -19.6510  -12.1546    4.7267 H           1 SU3       0.0557
     77 H24       -20.0786  -10.7202    6.6076 H           1 SU3       0.0426
     78 H25       -19.1515   -9.2368    6.7387 H           1 SU3       0.0426
     79 H26       -10.6958   -7.8076   13.5512 H           1 SU3       0.2148
     80 H27       -13.3916   -5.0825   15.1522 H           1 SU3       0.0559
     81 H28       -13.6862   -8.2185   15.4394 H           1 SU3       0.0285
     82 H29       -15.0234   -6.9770   14.9912 H           1 SU3       0.0285
     83 H30       -14.6229   -5.8108   17.1247 H           1 SU3       0.0285
     84 H31       -13.2558   -7.0309   17.5524 H           1 SU3       0.0285
     85 H32       -17.3634  -10.4999    8.0256 H           1 SU3       0.0287
     86 H33       -18.2816  -11.9854    7.7950 H           1 SU3       0.0287
     87 H34       -18.7003  -11.2905   10.0154 H           1 SU3       0.0267
     88 H35       -20.1813  -10.9774    9.1131 H           1 SU3       0.0267
     89 H36       -19.5287   -8.5422    8.9657 H           1 SU3       0.0271
     90 H37       -18.0621   -8.8964    9.8629 H           1 SU3       0.0271
     91 H38       -20.1228   -6.7233   10.5697 H           1 SU3       0.0617
     92 H39       -20.2826   -7.0439   12.2918 H           1 SU3       0.0617
     93 H40       -21.5754  -10.2218   10.8472 H           1 SU3       0.0236
     94 H41       -21.8246   -8.6363   10.1043 H           1 SU3       0.0236
     95 H42       -21.9356   -8.8287   11.8590 H           1 SU3       0.0236
     96 H43       -18.2010   -9.5298   12.3599 H           1 SU3       0.0236
     97 H44       -19.4927  -10.7232   12.1865 H           1 SU3       0.0236
     98 H45       -19.7234   -9.3286   13.2380 H           1 SU3       0.0236
     99 H46       -15.5572   -4.8129   13.8023 H           1 SU3       0.0237
    100 H47       -16.6381   -3.6682   13.0038 H           1 SU3       0.0237
    101 H48       -15.2523   -3.0783   13.9256 H           1 SU3       0.0237
    102 H49       -12.5621   -4.1012   11.5630 H           1 SU3       0.0237
    103 H50       -13.1170   -5.1627   12.8573 H           1 SU3       0.0237
    104 H51       -12.9250   -3.4423   13.1571 H           1 SU3       0.0237
    105 H52       -13.9408   -4.1922    8.1054 H           1 SU3       0.0553
    106 H53       -15.3297   -5.3025    7.9757 H           1 SU3       0.0553
@<TRIPOS>BOND
     1     1     3   2
     2     1     4   1
     3    21     1  am
     4     4     2   1
     5     2     7  am
     6     2    52   1
     7     4     5   1
     8     5     6   1
     9     6    52   1
    10     6    53   1
    11     7     8   2
    12     7     9   1
    13     9    10   1
    14     9    13   1
    15    10    11  am
    16    11    12   1
    17    11    14   2
    18    12    47   1
    19    13    20   1
    20    13    50   1
    21    13    51   1
    22    15    16   2
    23    15    17  am
    24    53    15   1
    25    17    26   1
    26    17    29   1
    27    18    19   1
    28    24    18   1
    29    22    21   1
    30    22    23   1
    31    22    24   1
    32    22    25   1
    33    23    35  am
    34    23    36   2
    35    24    25   1
    36    26    27   2
    37    27    28  ar
    38    27    30  ar
    39    28    29   2
    40    28    33  ar
    41    30    31  ar
    42    31    32  ar
    43    32    33  ar
    44    33    34   1
    45    34    43   1
    46    35    37  am
    47    37    38   1
    48    37    39   2
    49    37    40   2
    50    38    41   1
    51    38    42   1
    52    41    42   1
    53    43    44   1
    54    44    45   1
    55    45    46   1
    56    46    47   1
    57    46    48   1
    58    46    49   1
    59     4    54   1
    60     5    55   1
    61     5    56   1
    62     6    57   1
    63     9    58   1
    64    10    59   1
    65    18    60   1
    66    18    61   1
    67    19    62   1
    68    19    63   1
    69    19    64   1
    70    20    65   1
    71    20    66   1
    72    20    67   1
    73    21    68   1
    74    24    69   1
    75    25    70   1
    76    25    71   1
    77    26    72   1
    78    29    73   1
    79    30    74   1
    80    31    75   1
    81    32    76   1
    82    34    77   1
    83    34    78   1
    84    35    79   1
    85    38    80   1
    86    41    81   1
    87    41    82   1
    88    42    83   1
    89    42    84   1
    90    43    85   1
    91    43    86   1
    92    44    87   1
    93    44    88   1
    94    45    89   1
    95    45    90   1
    96    47    91   1
    97    47    92   1
    98    48    93   1
    99    48    94   1
   100    48    95   1
   101    49    96   1
   102    49    97   1
   103    49    98   1
   104    50    99   1
   105    50   100   1
   106    50   101   1
   107    51   102   1
   108    51   103   1
   109    51   104   1
   110    52   105   1
   111    52   106   1
@<TRIPOS>SUBSTRUCTURE
     1  SU3      1

