@<TRIPOS>MOLECULE
3su5_ligand_056
   106   111
SMALL
GAST_HUCK
****
This file was generated by PARSER (from files_GN.cpp)

@<TRIPOS>ATOM
      1 C          -9.1657   -9.6070    7.9807 C.2         1 SU3       0.2013
      2 N         -10.0229   -8.1530    9.7280 N.am        1 SU3      -0.2469
      3 O          -8.6879   -8.6816    7.3378 O.2         1 SU3      -0.3947
      4 CA        -10.2626   -9.3311    8.9190 C.3         1 SU3       0.1363
      5 CB        -11.6062   -9.0643    8.1945 C.3         1 SU3       0.0206
      6 CG        -11.7744   -7.5350    8.1988 C.3         1 SU3       0.1158
      7 CAF        -9.1745   -8.1137   10.7782 C.2         1 SU3       0.2070
      8 OAG        -8.7459   -9.1882   11.1860 O.2         1 SU3      -0.3942
      9 CAH        -8.8635   -6.9293   11.6024 C.3         1 SU3       0.1378
     10 NAI        -9.7315   -6.9795   12.7556 N.am        1 SU3      -0.2407
     11 CAJ       -10.5494   -5.9727   13.1551 C.2         1 SU3       0.3218
     12 OAK       -11.1354   -6.0505   14.3759 O.3         1 SU3      -0.2633
     13 CAL        -7.3364   -6.6360   11.9762 C.3         1 SU3       0.0025
     14 OAM       -10.7069   -4.8475   12.4108 O.2         1 SU3      -0.3774
     15 CAO       -14.2563   -7.2827    7.7436 C.2         1 SU3       0.4317
     16 OAP       -14.1969   -7.8512    6.5147 O.2         1 SU3      -0.3166
     17 NAQ       -15.4331   -6.9015    8.2917 N.am        1 SU3      -0.2080
     18 CAR        -7.2030  -13.2824    5.0518 C.3         1 SU3      -0.0516
     19 CAS        -7.5164  -14.7472    5.4101 C.3         1 SU3      -0.0651
     20 CAT        -6.4755   -7.9069   12.2863 C.3         1 SU3      -0.0558
     21 NAV        -8.7333  -10.8490    7.7919 N.am        1 SU3      -0.2737
     22 CAX        -7.6709  -11.2595    6.9179 C.3         1 SU3       0.1374
     23 CAY        -6.4219  -11.6061    7.5660 C.2         1 SU3       0.2444
     24 CAZ        -8.1038  -12.2743    5.8195 C.3         1 SU3      -0.0066
     25 CBA        -7.7380  -10.8308    5.4377 C.3         1 SU3      -0.0152
     26 CBB       -16.6590   -6.9945    7.7272 C.2         1 SU3       0.0383
     27 CBC       -17.6083   -6.5386    8.6375 C.ar        1 SU3      -0.0374
     28 CBD       -16.9264   -6.1650    9.7935 C.ar        1 SU3      -0.0293
     29 CBE       -15.5803   -6.3858    9.5373 C.2         1 SU3       0.0366
     30 CBF       -19.0047   -6.4300    8.5511 C.ar        1 SU3      -0.0689
     31 CBG       -19.7097   -5.9300    9.6637 C.ar        1 SU3      -0.0688
     32 CBH       -19.0200   -5.5611   10.8427 C.ar        1 SU3      -0.0606
     33 CBI       -17.6114   -5.6808   10.9370 C.ar        1 SU3      -0.0432
     34 CBJ       -16.8813   -5.3375   12.1904 C.3         1 SU3      -0.0194
     35 NBK        -6.3692  -12.7000    8.3129 N.am        1 SU3      -0.1552
     36 OBL        -5.4596  -10.8657    7.4266 O.2         1 SU3      -0.3404
     37 SBM        -5.0374  -13.2222    9.2022 S.o2        1 SU3       0.0645
     38 CBN        -5.3170  -14.7873   10.0676 C.3         1 SU3       0.1004
     39 OBO        -3.7348  -13.3988    8.2968 O.2         1 SU3      -0.1503
     40 OBP        -4.7244  -12.1597   10.3402 O.2         1 SU3      -0.1503
     41 CBQ        -6.7104  -15.0273   10.6637 C.3         1 SU3      -0.0268
     42 CBR        -6.2494  -15.8324    9.4427 C.3         1 SU3      -0.0268
     43 CBS       -16.3845   -6.6047   12.9443 C.3         1 SU3      -0.0433
     44 CBT       -15.6266   -6.3277   14.2729 C.3         1 SU3      -0.0507
     45 CBU       -14.1728   -5.7898   14.1091 C.3         1 SU3      -0.0453
     46 CBV       -13.3536   -5.5152   15.4289 C.3         1 SU3      -0.0072
     47 CBW       -11.9133   -5.0344   15.0412 C.3         1 SU3       0.0824
     48 CBX       -14.0245   -4.3790   16.2706 C.3         1 SU3      -0.0574
     49 CBY       -13.2222   -6.7983   16.3128 C.3         1 SU3      -0.0574
     50 CBZ        -6.6443   -5.8597   10.8023 C.3         1 SU3      -0.0558
     51 CCA        -7.2296   -5.7113   13.2425 C.3         1 SU3      -0.0558
     52 CD1       -10.8674   -7.0553    9.3488 C.3         1 SU3       0.0677
     53 OD2       -13.1189   -7.1318    8.4718 O.3         1 SU3      -0.2338
     54 H1        -10.4216  -10.2032    9.5662 H           1 SU3       0.0803
     55 H2        -12.4251   -9.5237    8.7594 H           1 SU3       0.0342
     56 H3        -11.6428   -9.4621    7.1752 H           1 SU3       0.0342
     57 H4        -11.4392   -7.1092    7.2471 H           1 SU3       0.0673
     58 H5         -9.1541   -6.0579   11.0169 H           1 SU3       0.0805
     59 H6         -9.6564   -7.7528   13.3422 H           1 SU3       0.1899
     60 H7         -7.3648  -13.1524    3.9797 H           1 SU3       0.0265
     61 H8         -6.1459  -13.0993    5.2549 H           1 SU3       0.0265
     62 H9         -6.9222  -15.4181    4.7884 H           1 SU3       0.0230
     63 H10        -8.5715  -14.9716    5.2526 H           1 SU3       0.0230
     64 H11        -7.2678  -14.9327    6.4488 H           1 SU3       0.0230
     65 H12        -5.4850   -7.6332   12.6555 H           1 SU3       0.0237
     66 H13        -6.3181   -8.5052   11.3880 H           1 SU3       0.0237
     67 H14        -6.9571   -8.5310   13.0439 H           1 SU3       0.0237
     68 H15        -9.1419  -11.5460    8.3250 H           1 SU3       0.1839
     69 H16        -9.1794  -12.4431    5.7357 H           1 SU3       0.0312
     70 H17        -6.7681  -10.6512    4.9640 H           1 SU3       0.0279
     71 H18        -8.5929  -10.2257    5.1216 H           1 SU3       0.0279
     72 H19       -16.8671   -7.3514    6.7911 H           1 SU3       0.0373
     73 H20       -14.8231   -6.2016   10.1996 H           1 SU3       0.0361
     74 H21       -19.4990   -6.7069    7.6997 H           1 SU3       0.0557
     75 H22       -20.7258   -5.8392    9.6199 H           1 SU3       0.0599
     76 H23       -19.5619   -5.2121   11.6372 H           1 SU3       0.0557
     77 H24       -17.5319   -4.7703   12.8625 H           1 SU3       0.0426
     78 H25       -16.0396   -4.6890   11.9411 H           1 SU3       0.0426
     79 H26        -7.1786  -13.2317    8.3827 H           1 SU3       0.2148
     80 H27        -4.4954  -15.2021   10.6543 H           1 SU3       0.0559
     81 H28        -7.4880  -14.2901   10.4520 H           1 SU3       0.0285
     82 H29        -6.7737  -15.6139   11.5818 H           1 SU3       0.0285
     83 H30        -6.0263  -16.8811    9.6524 H           1 SU3       0.0285
     84 H31        -6.7839  -15.5831    8.5297 H           1 SU3       0.0285
     85 H32       -15.7425   -7.2051   12.2956 H           1 SU3       0.0287
     86 H33       -17.2617   -7.2150   13.1824 H           1 SU3       0.0287
     87 H34       -15.5783   -7.2765   14.8100 H           1 SU3       0.0267
     88 H35       -16.2195   -5.6352   14.8726 H           1 SU3       0.0267
     89 H36       -14.2175   -4.8632   13.5307 H           1 SU3       0.0271
     90 H37       -13.6250   -6.5156   13.5011 H           1 SU3       0.0271
     91 H38       -11.9830   -4.1257   14.4348 H           1 SU3       0.0617
     92 H39       -11.3536   -4.7656   15.9414 H           1 SU3       0.0617
     93 H40       -14.9910   -4.6971   16.6613 H           1 SU3       0.0236
     94 H41       -14.1772   -3.4834   15.6642 H           1 SU3       0.0236
     95 H42       -13.4007   -4.1051   17.1239 H           1 SU3       0.0236
     96 H43       -12.8284   -7.6334   15.7295 H           1 SU3       0.0236
     97 H44       -14.1885   -7.0940   16.7198 H           1 SU3       0.0236
     98 H45       -12.5497   -6.6236   17.1560 H           1 SU3       0.0236
     99 H46        -7.1039   -4.8785   10.6604 H           1 SU3       0.0237
    100 H47        -6.7413   -6.4099    9.8680 H           1 SU3       0.0237
    101 H48        -5.5815   -5.7032   11.0002 H           1 SU3       0.0237
    102 H49        -7.5882   -6.2305   14.1360 H           1 SU3       0.0237
    103 H50        -7.8176   -4.7980   13.1142 H           1 SU3       0.0237
    104 H51        -6.1933   -5.4221   13.4323 H           1 SU3       0.0237
    105 H52       -10.2869   -6.1928    9.0132 H           1 SU3       0.0553
    106 H53       -11.4737   -6.7615   10.2108 H           1 SU3       0.0553
@<TRIPOS>BOND
     1     1     3   2
     2     1     4   1
     3    21     1  am
     4     4     2   1
     5     2     7  am
     6     2    52   1
     7     4     5   1
     8     5     6   1
     9     6    52   1
    10     6    53   1
    11     7     8   2
    12     7     9   1
    13     9    10   1
    14     9    13   1
    15    10    11  am
    16    11    12   1
    17    11    14   2
    18    12    47   1
    19    13    20   1
    20    13    50   1
    21    13    51   1
    22    15    16   2
    23    15    17  am
    24    53    15   1
    25    17    26   1
    26    17    29   1
    27    18    19   1
    28    24    18   1
    29    22    21   1
    30    22    23   1
    31    22    24   1
    32    22    25   1
    33    23    35  am
    34    23    36   2
    35    24    25   1
    36    26    27   2
    37    27    28  ar
    38    27    30  ar
    39    28    29   2
    40    28    33  ar
    41    30    31  ar
    42    31    32  ar
    43    32    33  ar
    44    33    34   1
    45    34    43   1
    46    35    37  am
    47    37    38   1
    48    37    39   2
    49    37    40   2
    50    38    41   1
    51    38    42   1
    52    41    42   1
    53    43    44   1
    54    44    45   1
    55    45    46   1
    56    46    47   1
    57    46    48   1
    58    46    49   1
    59     4    54   1
    60     5    55   1
    61     5    56   1
    62     6    57   1
    63     9    58   1
    64    10    59   1
    65    18    60   1
    66    18    61   1
    67    19    62   1
    68    19    63   1
    69    19    64   1
    70    20    65   1
    71    20    66   1
    72    20    67   1
    73    21    68   1
    74    24    69   1
    75    25    70   1
    76    25    71   1
    77    26    72   1
    78    29    73   1
    79    30    74   1
    80    31    75   1
    81    32    76   1
    82    34    77   1
    83    34    78   1
    84    35    79   1
    85    38    80   1
    86    41    81   1
    87    41    82   1
    88    42    83   1
    89    42    84   1
    90    43    85   1
    91    43    86   1
    92    44    87   1
    93    44    88   1
    94    45    89   1
    95    45    90   1
    96    47    91   1
    97    47    92   1
    98    48    93   1
    99    48    94   1
   100    48    95   1
   101    49    96   1
   102    49    97   1
   103    49    98   1
   104    50    99   1
   105    50   100   1
   106    50   101   1
   107    51   102   1
   108    51   103   1
   109    51   104   1
   110    52   105   1
   111    52   106   1
@<TRIPOS>SUBSTRUCTURE
     1  SU3      1

