@<TRIPOS>MOLECULE
3su5_ligand_007
   106   111
SMALL
GAST_HUCK
****
This file was generated by PARSER (from files_GN.cpp)

@<TRIPOS>ATOM
      1 C          -6.9003   -3.7140    6.8666 C.2         1 SU3       0.2013
      2 N          -8.4532   -5.2284    7.9254 N.am        1 SU3      -0.2469
      3 O          -7.4962   -2.6834    7.1480 O.2         1 SU3      -0.3947
      4 CA         -7.6530   -4.9632    6.7519 C.3         1 SU3       0.1363
      5 CB         -8.6576   -4.9608    5.5767 C.3         1 SU3       0.0206
      6 CG         -9.9965   -4.5844    6.2248 C.3         1 SU3       0.1158
      7 CAF        -7.9344   -5.5866    9.1151 C.2         1 SU3       0.2070
      8 OAG        -6.7141   -5.6643    9.1985 O.2         1 SU3      -0.3942
      9 CAH        -8.7296   -5.9273   10.3102 C.3         1 SU3       0.1378
     10 NAI        -9.3112   -7.2230   10.0839 N.am        1 SU3      -0.2407
     11 CAJ       -10.6163   -7.5444   10.2483 C.2         1 SU3       0.3218
     12 OAK       -10.9583   -8.8615   10.2448 O.3         1 SU3      -0.2633
     13 CAL        -8.0346   -5.8839   11.7403 C.3         1 SU3       0.0025
     14 OAM       -11.5409   -6.5986   10.5482 O.2         1 SU3      -0.3774
     15 CAO       -11.6424   -4.9685    4.3447 C.2         1 SU3       0.4317
     16 OAP       -11.1029   -4.0240    3.5392 O.2         1 SU3      -0.3166
     17 NAQ       -12.6723   -5.7477    3.9313 N.am        1 SU3      -0.2080
     18 CAR        -2.2266   -1.8916    5.8599 C.3         1 SU3      -0.0516
     19 CAS        -1.2129   -2.8787    6.4812 C.3         1 SU3      -0.0651
     20 CAT        -6.7713   -6.8133   11.8599 C.3         1 SU3      -0.0558
     21 NAV        -5.5905   -3.7032    6.6572 N.am        1 SU3      -0.2737
     22 CAX        -4.7412   -2.5556    6.7172 C.3         1 SU3       0.1374
     23 CAY        -4.4652   -1.9983    8.0249 C.2         1 SU3       0.2444
     24 CAZ        -3.6133   -2.5547    5.6510 C.3         1 SU3      -0.0066
     25 CBA        -4.8039   -1.5899    5.5113 C.3         1 SU3      -0.0152
     26 CBB       -13.3049   -5.7032    2.7361 C.2         1 SU3       0.0383
     27 CBC       -14.2638   -6.7087    2.7019 C.ar        1 SU3      -0.0374
     28 CBD       -14.2017   -7.3824    3.9187 C.ar        1 SU3      -0.0293
     29 CBE       -13.2174   -6.7439    4.6638 C.2         1 SU3       0.0366
     30 CBF       -15.1797   -7.1023    1.7102 C.ar        1 SU3      -0.0689
     31 CBG       -16.0319   -8.1952    1.9742 C.ar        1 SU3      -0.0688
     32 CBH       -15.9561   -8.8826    3.2083 C.ar        1 SU3      -0.0606
     33 CBI       -15.0291   -8.4922    4.2082 C.ar        1 SU3      -0.0432
     34 CBJ       -14.9201   -9.2202    5.5041 C.3         1 SU3      -0.0194
     35 NBK        -5.2832   -1.0795    8.5084 N.am        1 SU3      -0.1552
     36 OBL        -3.5104   -2.4284    8.6621 O.2         1 SU3      -0.3404
     37 SBM        -5.1038   -0.2921    9.9900 S.o2        1 SU3       0.0645
     38 CBN        -5.9840   -1.0966   11.3506 C.3         1 SU3       0.1004
     39 OBO        -3.5600   -0.1107   10.3359 O.2         1 SU3      -0.1503
     40 OBP        -5.6281    1.1920    9.7655 O.2         1 SU3      -0.1503
     41 CBQ        -6.3088   -0.2382   12.5815 C.3         1 SU3      -0.0268
     42 CBR        -7.4352   -0.6739   11.6343 C.3         1 SU3      -0.0268
     43 CBS       -13.6294  -10.0862    5.5959 C.3         1 SU3      -0.0433
     44 CBT       -13.4241  -10.8010    6.9609 C.3         1 SU3      -0.0507
     45 CBU       -12.9504   -9.8703    8.1189 C.3         1 SU3      -0.0453
     46 CBV       -12.7057  -10.5353    9.5275 C.3         1 SU3      -0.0072
     47 CBW       -12.2497   -9.4292   10.5411 C.3         1 SU3       0.0824
     48 CBX       -14.0280  -11.1710   10.0742 C.3         1 SU3      -0.0574
     49 CBY       -11.5998  -11.6381    9.4614 C.3         1 SU3      -0.0574
     50 CBZ        -7.6244   -4.4086   12.0796 C.3         1 SU3      -0.0558
     51 CCA        -9.0559   -6.3319   12.8513 C.3         1 SU3      -0.0558
     52 CD1        -9.8598   -5.1363    7.6531 C.3         1 SU3       0.0677
     53 OD2       -11.1200   -5.1827    5.5795 O.3         1 SU3      -0.2338
     54 H1         -6.9648   -5.8018    6.5913 H           1 SU3       0.0803
     55 H2         -8.7299   -5.9676    5.1521 H           1 SU3       0.0342
     56 H3         -8.3888   -4.2680    4.7739 H           1 SU3       0.0342
     57 H4        -10.1132   -3.4968    6.2544 H           1 SU3       0.0673
     58 H5         -9.5142   -5.1689   10.3699 H           1 SU3       0.0805
     59 H6         -8.6967   -7.9428    9.8751 H           1 SU3       0.1899
     60 H7         -1.8462   -1.5618    4.8880 H           1 SU3       0.0265
     61 H8         -2.3018   -1.0094    6.5008 H           1 SU3       0.0265
     62 H9         -0.2443   -2.3866    6.5930 H           1 SU3       0.0230
     63 H10        -1.0871   -3.7485    5.8332 H           1 SU3       0.0230
     64 H11        -1.5574   -3.2112    7.4654 H           1 SU3       0.0230
     65 H12        -6.4615   -6.9207   12.9048 H           1 SU3       0.0237
     66 H13        -5.9142   -6.4044   11.3200 H           1 SU3       0.0237
     67 H14        -6.9757   -7.8136   11.4658 H           1 SU3       0.0237
     68 H15        -5.1617   -4.5475    6.4531 H           1 SU3       0.1839
     69 H16        -3.6546   -3.3620    4.9134 H           1 SU3       0.0312
     70 H17        -4.5953   -0.5366    5.7039 H           1 SU3       0.0279
     71 H18        -5.5070   -1.8439    4.7158 H           1 SU3       0.0279
     72 H19       -13.1079   -5.0543    1.9716 H           1 SU3       0.0373
     73 H20       -12.9411   -7.0109    5.6111 H           1 SU3       0.0361
     74 H21       -15.2281   -6.6090    0.8162 H           1 SU3       0.0557
     75 H22       -16.7051   -8.4970    1.2658 H           1 SU3       0.0599
     76 H23       -16.5790   -9.6789    3.3658 H           1 SU3       0.0557
     77 H24       -15.7848   -9.8761    5.6426 H           1 SU3       0.0426
     78 H25       -14.9477   -8.4865    6.3130 H           1 SU3       0.0426
     79 H26        -6.0333   -0.8044    7.9544 H           1 SU3       0.2148
     80 H27        -5.7398   -2.1377   11.5791 H           1 SU3       0.0559
     81 H28        -6.0538    0.8238   12.5407 H           1 SU3       0.0285
     82 H29        -6.2804   -0.7564   13.5420 H           1 SU3       0.0285
     83 H30        -8.1038   -1.4294   12.0491 H           1 SU3       0.0285
     84 H31        -7.8567    0.1299   11.0249 H           1 SU3       0.0285
     85 H32       -12.7462   -9.4811    5.3815 H           1 SU3       0.0287
     86 H33       -13.6903  -10.8524    4.8174 H           1 SU3       0.0287
     87 H34       -12.6707  -11.5745    6.8081 H           1 SU3       0.0267
     88 H35       -14.3572  -11.2957    7.2317 H           1 SU3       0.0267
     89 H36       -13.6937   -9.0792    8.2419 H           1 SU3       0.0271
     90 H37       -12.0228   -9.3868    7.7979 H           1 SU3       0.0271
     91 H38       -13.0147   -8.6480   10.6025 H           1 SU3       0.0617
     92 H39       -12.1622   -9.8632   11.5409 H           1 SU3       0.0617
     93 H40       -14.3440  -12.0166    9.4646 H           1 SU3       0.0236
     94 H41       -14.8354  -10.4361   10.0842 H           1 SU3       0.0236
     95 H42       -13.8920  -11.5381   11.0939 H           1 SU3       0.0236
     96 H43       -10.6876  -11.2458    9.0071 H           1 SU3       0.0236
     97 H44       -11.9308  -12.4949    8.8736 H           1 SU3       0.0236
     98 H45       -11.3529  -12.0001   10.4624 H           1 SU3       0.0236
     99 H46        -8.5082   -3.7648   12.1201 H           1 SU3       0.0237
    100 H47        -6.9395   -4.0015   11.3330 H           1 SU3       0.0237
    101 H48        -7.1277   -4.3573   13.0513 H           1 SU3       0.0237
    102 H49        -9.2926   -7.3970   12.7629 H           1 SU3       0.0237
    103 H50        -9.9886   -5.7666   12.7748 H           1 SU3       0.0237
    104 H51        -8.6485   -6.1680   13.8530 H           1 SU3       0.0237
    105 H52       -10.3662   -4.4637    8.3472 H           1 SU3       0.0553
    106 H53       -10.3100   -6.1308    7.7232 H           1 SU3       0.0553
@<TRIPOS>BOND
     1     1     3   2
     2     1     4   1
     3    21     1  am
     4     4     2   1
     5     2     7  am
     6     2    52   1
     7     4     5   1
     8     5     6   1
     9     6    52   1
    10     6    53   1
    11     7     8   2
    12     7     9   1
    13     9    10   1
    14     9    13   1
    15    10    11  am
    16    11    12   1
    17    11    14   2
    18    12    47   1
    19    13    20   1
    20    13    50   1
    21    13    51   1
    22    15    16   2
    23    15    17  am
    24    53    15   1
    25    17    26   1
    26    17    29   1
    27    18    19   1
    28    24    18   1
    29    22    21   1
    30    22    23   1
    31    22    24   1
    32    22    25   1
    33    23    35  am
    34    23    36   2
    35    24    25   1
    36    26    27   2
    37    27    28  ar
    38    27    30  ar
    39    28    29   2
    40    28    33  ar
    41    30    31  ar
    42    31    32  ar
    43    32    33  ar
    44    33    34   1
    45    34    43   1
    46    35    37  am
    47    37    38   1
    48    37    39   2
    49    37    40   2
    50    38    41   1
    51    38    42   1
    52    41    42   1
    53    43    44   1
    54    44    45   1
    55    45    46   1
    56    46    47   1
    57    46    48   1
    58    46    49   1
    59     4    54   1
    60     5    55   1
    61     5    56   1
    62     6    57   1
    63     9    58   1
    64    10    59   1
    65    18    60   1
    66    18    61   1
    67    19    62   1
    68    19    63   1
    69    19    64   1
    70    20    65   1
    71    20    66   1
    72    20    67   1
    73    21    68   1
    74    24    69   1
    75    25    70   1
    76    25    71   1
    77    26    72   1
    78    29    73   1
    79    30    74   1
    80    31    75   1
    81    32    76   1
    82    34    77   1
    83    34    78   1
    84    35    79   1
    85    38    80   1
    86    41    81   1
    87    41    82   1
    88    42    83   1
    89    42    84   1
    90    43    85   1
    91    43    86   1
    92    44    87   1
    93    44    88   1
    94    45    89   1
    95    45    90   1
    96    47    91   1
    97    47    92   1
    98    48    93   1
    99    48    94   1
   100    48    95   1
   101    49    96   1
   102    49    97   1
   103    49    98   1
   104    50    99   1
   105    50   100   1
   106    50   101   1
   107    51   102   1
   108    51   103   1
   109    51   104   1
   110    52   105   1
   111    52   106   1
@<TRIPOS>SUBSTRUCTURE
     1  SU3      1

