@<TRIPOS>MOLECULE
3su5_ligand_053
   106   111
SMALL
GAST_HUCK
****
This file was generated by PARSER (from files_GN.cpp)

@<TRIPOS>ATOM
      1 C         -13.5301   -9.4042   13.7740 C.2         1 SU3       0.2013
      2 N         -15.8263   -9.9293   13.3905 N.am        1 SU3      -0.2469
      3 O         -12.8990   -9.4695   12.7280 O.2         1 SU3      -0.3947
      4 CA        -14.6091  -10.3543   14.0410 C.3         1 SU3       0.1363
      5 CB        -14.3666  -11.7905   13.5252 C.3         1 SU3       0.0206
      6 CG        -15.0616  -11.8305   12.1513 C.3         1 SU3       0.1158
      7 CAF       -16.6327   -8.9650   13.8774 C.2         1 SU3       0.2070
      8 OAG       -16.3804   -8.5274   14.9934 O.2         1 SU3      -0.3942
      9 CAH       -17.9091   -8.5163   13.2833 C.3         1 SU3       0.1378
     10 NAI       -18.9596   -9.1082   14.0800 N.am        1 SU3      -0.2407
     11 CAJ       -19.9192   -9.9545   13.6246 C.2         1 SU3       0.3218
     12 OAK       -20.8887  -10.3761   14.4811 O.3         1 SU3      -0.2633
     13 CAL       -18.0808   -6.9428   13.0495 C.3         1 SU3       0.0025
     14 OAM       -19.9836  -10.3153   12.3191 O.2         1 SU3      -0.3774
     15 CAO       -15.1588  -14.3053   11.6393 C.2         1 SU3       0.4317
     16 OAP       -13.8217  -14.4289   11.4588 O.2         1 SU3      -0.3166
     17 NAQ       -15.9825  -15.3808   11.5960 N.am        1 SU3      -0.2080
     18 CAR       -12.1457   -4.9134   15.7849 C.3         1 SU3      -0.0516
     19 CAS       -13.4399   -4.0918   15.6256 C.3         1 SU3      -0.0651
     20 CAT       -17.6004   -6.0488   14.2395 C.3         1 SU3      -0.0558
     21 NAV       -13.3247   -8.4126   14.6336 N.am        1 SU3      -0.2737
     22 CAX       -12.3380   -7.3726   14.5766 C.3         1 SU3       0.1374
     23 CAY       -11.9222   -6.8056   13.3059 C.2         1 SU3       0.2444
     24 CAZ       -12.4670   -6.4309   15.8063 C.3         1 SU3      -0.0066
     25 CBA       -11.2765   -7.3882   15.6949 C.3         1 SU3      -0.0152
     26 CBB       -15.6363  -16.6572   11.3149 C.2         1 SU3       0.0383
     27 CBC       -16.7629  -17.4616   11.4392 C.ar        1 SU3      -0.0374
     28 CBD       -17.8206  -16.6396   11.8229 C.ar        1 SU3      -0.0293
     29 CBE       -17.3038  -15.3505   11.8838 C.2         1 SU3       0.0366
     30 CBF       -16.9494  -18.8445   11.2666 C.ar        1 SU3      -0.0689
     31 CBG       -18.2310  -19.3829   11.4957 C.ar        1 SU3      -0.0688
     32 CBH       -19.2968  -18.5510   11.9057 C.ar        1 SU3      -0.0606
     33 CBI       -19.1108  -17.1553   12.0903 C.ar        1 SU3      -0.0432
     34 CBJ       -20.2080  -16.2796   12.5917 C.3         1 SU3      -0.0194
     35 NBK       -10.8179   -7.2613   12.7443 N.am        1 SU3      -0.1552
     36 OBL       -12.6629   -5.9938   12.7581 O.2         1 SU3      -0.3404
     37 SBM       -10.1485   -6.7866   11.2648 S.o2        1 SU3       0.0645
     38 CBN        -8.4865   -6.0972   11.4502 C.3         1 SU3       0.1004
     39 OBO       -10.0631   -8.0824   10.3476 O.2         1 SU3      -0.1503
     40 OBP       -11.0934   -5.7779   10.4752 O.2         1 SU3      -0.1503
     41 CBQ        -8.0142   -5.0264   10.4587 C.3         1 SU3      -0.0268
     42 CBR        -8.3711   -4.6355   11.9013 C.3         1 SU3      -0.0268
     43 CBS       -19.9820  -15.8584   14.0722 C.3         1 SU3      -0.0433
     44 CBT       -21.1009  -14.9678   14.6803 C.3         1 SU3      -0.0507
     45 CBU       -21.1123  -13.4853   14.1902 C.3         1 SU3      -0.0453
     46 CBV       -22.2018  -12.5298   14.8147 C.3         1 SU3      -0.0072
     47 CBW       -22.0913  -11.1054   14.1615 C.3         1 SU3       0.0824
     48 CBX       -23.6404  -13.0698   14.5162 C.3         1 SU3      -0.0574
     49 CBY       -22.0212  -12.3916   16.3608 C.3         1 SU3      -0.0574
     50 CBZ       -17.2715   -6.5186   11.7781 C.3         1 SU3      -0.0558
     51 CCA       -19.5851   -6.5952   12.7894 C.3         1 SU3      -0.0558
     52 CD1       -16.1325  -10.7247   12.2386 C.3         1 SU3       0.0677
     53 OD2       -15.6972  -13.0907   11.9195 O.3         1 SU3      -0.2338
     54 H1        -14.7580  -10.4413   15.1224 H           1 SU3       0.0803
     55 H2        -14.8470  -12.5080   14.1991 H           1 SU3       0.0342
     56 H3        -13.3050  -12.0476   13.4628 H           1 SU3       0.0342
     57 H4        -14.3541  -11.6024   11.3458 H           1 SU3       0.0673
     58 H5        -17.9819   -8.9452   12.2834 H           1 SU3       0.0805
     59 H6        -19.0190   -8.8293   15.0108 H           1 SU3       0.1899
     60 H7        -11.6682   -4.6425   16.7288 H           1 SU3       0.0265
     61 H8        -11.4572   -4.6606   14.9785 H           1 SU3       0.0265
     62 H9        -13.1952   -3.0324   15.5315 H           1 SU3       0.0230
     63 H10       -14.0795   -4.2263   16.5012 H           1 SU3       0.0230
     64 H11       -13.9868   -4.4029   14.7328 H           1 SU3       0.0230
     65 H12       -17.9079   -5.0062   14.1210 H           1 SU3       0.0237
     66 H13       -16.5121   -6.0571   14.3139 H           1 SU3       0.0237
     67 H14       -18.0200   -6.4175   15.1750 H           1 SU3       0.0237
     68 H15       -13.8993   -8.4107   15.4159 H           1 SU3       0.1839
     69 H16       -13.1506   -6.7568   16.5990 H           1 SU3       0.0312
     70 H17       -10.3113   -6.9359   15.4612 H           1 SU3       0.0279
     71 H18       -11.2920   -8.2648   16.3463 H           1 SU3       0.0279
     72 H19       -14.7013  -16.9884   11.0663 H           1 SU3       0.0373
     73 H20       -17.8421  -14.5208   12.1420 H           1 SU3       0.0361
     74 H21       -16.1728  -19.4439   10.9854 H           1 SU3       0.0557
     75 H22       -18.3869  -20.3861   11.3775 H           1 SU3       0.0599
     76 H23       -20.2108  -18.9757   12.0874 H           1 SU3       0.0557
     77 H24       -21.1656  -16.8013   12.5234 H           1 SU3       0.0426
     78 H25       -20.2773  -15.3996   11.9505 H           1 SU3       0.0426
     79 H26       -10.3287   -7.9517   13.2299 H           1 SU3       0.2148
     80 H27        -7.7029   -6.7522   11.8363 H           1 SU3       0.0559
     81 H28        -8.7233   -4.6972    9.6962 H           1 SU3       0.0285
     82 H29        -6.9473   -5.0314   10.2285 H           1 SU3       0.0285
     83 H30        -7.5154   -4.3923   12.5331 H           1 SU3       0.0285
     84 H31        -9.2955   -4.0653   12.0097 H           1 SU3       0.0285
     85 H32       -19.0283  -15.3384   14.1818 H           1 SU3       0.0287
     86 H33       -19.9211  -16.7712   14.6723 H           1 SU3       0.0287
     87 H34       -20.9608  -14.9732   15.7635 H           1 SU3       0.0267
     88 H35       -22.0623  -15.4403   14.4711 H           1 SU3       0.0267
     89 H36       -21.2428  -13.4931   13.1050 H           1 SU3       0.0271
     90 H37       -20.1228  -13.0616   14.3861 H           1 SU3       0.0271
     91 H38       -22.2144  -11.1955   13.0790 H           1 SU3       0.0617
     92 H39       -22.9171  -10.4783   14.5098 H           1 SU3       0.0617
     93 H40       -23.8251  -14.0181   15.0227 H           1 SU3       0.0236
     94 H41       -23.7795  -13.2220   13.4436 H           1 SU3       0.0236
     95 H42       -24.4013  -12.3661   14.8608 H           1 SU3       0.0236
     96 H43       -20.9978  -12.1017   16.6076 H           1 SU3       0.0236
     97 H44       -22.2412  -13.3310   16.8699 H           1 SU3       0.0236
     98 H45       -22.6977  -11.6342   16.7625 H           1 SU3       0.0236
     99 H46       -17.6595   -7.0107   10.8826 H           1 SU3       0.0237
    100 H47       -16.2185   -6.7908   11.8817 H           1 SU3       0.0237
    101 H48       -17.3304   -5.4395   11.6134 H           1 SU3       0.0237
    102 H49       -20.1815   -6.7550   13.6901 H           1 SU3       0.0237
    103 H50       -19.9914   -7.2227   11.9941 H           1 SU3       0.0237
    104 H51       -19.7093   -5.5498   12.4944 H           1 SU3       0.0237
    105 H52       -16.1213  -10.1121   11.3317 H           1 SU3       0.0553
    106 H53       -17.1238  -11.1744   12.3554 H           1 SU3       0.0553
@<TRIPOS>BOND
     1     1     3   2
     2     1     4   1
     3    21     1  am
     4     4     2   1
     5     2     7  am
     6     2    52   1
     7     4     5   1
     8     5     6   1
     9     6    52   1
    10     6    53   1
    11     7     8   2
    12     7     9   1
    13     9    10   1
    14     9    13   1
    15    10    11  am
    16    11    12   1
    17    11    14   2
    18    12    47   1
    19    13    20   1
    20    13    50   1
    21    13    51   1
    22    15    16   2
    23    15    17  am
    24    53    15   1
    25    17    26   1
    26    17    29   1
    27    18    19   1
    28    24    18   1
    29    22    21   1
    30    22    23   1
    31    22    24   1
    32    22    25   1
    33    23    35  am
    34    23    36   2
    35    24    25   1
    36    26    27   2
    37    27    28  ar
    38    27    30  ar
    39    28    29   2
    40    28    33  ar
    41    30    31  ar
    42    31    32  ar
    43    32    33  ar
    44    33    34   1
    45    34    43   1
    46    35    37  am
    47    37    38   1
    48    37    39   2
    49    37    40   2
    50    38    41   1
    51    38    42   1
    52    41    42   1
    53    43    44   1
    54    44    45   1
    55    45    46   1
    56    46    47   1
    57    46    48   1
    58    46    49   1
    59     4    54   1
    60     5    55   1
    61     5    56   1
    62     6    57   1
    63     9    58   1
    64    10    59   1
    65    18    60   1
    66    18    61   1
    67    19    62   1
    68    19    63   1
    69    19    64   1
    70    20    65   1
    71    20    66   1
    72    20    67   1
    73    21    68   1
    74    24    69   1
    75    25    70   1
    76    25    71   1
    77    26    72   1
    78    29    73   1
    79    30    74   1
    80    31    75   1
    81    32    76   1
    82    34    77   1
    83    34    78   1
    84    35    79   1
    85    38    80   1
    86    41    81   1
    87    41    82   1
    88    42    83   1
    89    42    84   1
    90    43    85   1
    91    43    86   1
    92    44    87   1
    93    44    88   1
    94    45    89   1
    95    45    90   1
    96    47    91   1
    97    47    92   1
    98    48    93   1
    99    48    94   1
   100    48    95   1
   101    49    96   1
   102    49    97   1
   103    49    98   1
   104    50    99   1
   105    50   100   1
   106    50   101   1
   107    51   102   1
   108    51   103   1
   109    51   104   1
   110    52   105   1
   111    52   106   1
@<TRIPOS>SUBSTRUCTURE
     1  SU3      1

