@<TRIPOS>MOLECULE
3su5_ligand_044
   106   111
SMALL
GAST_HUCK
****
This file was generated by PARSER (from files_GN.cpp)

@<TRIPOS>ATOM
      1 C         -11.2358   -7.1038   10.2807 C.2         1 SU3       0.2013
      2 N         -13.4435   -6.6178   11.3129 N.am        1 SU3      -0.2469
      3 O         -10.6489   -8.0550    9.7773 O.2         1 SU3      -0.3947
      4 CA        -12.6907   -7.0188   10.1382 C.3         1 SU3       0.1363
      5 CB        -13.0714   -5.9965    9.0400 C.3         1 SU3       0.0206
      6 CG        -14.4760   -5.5389    9.4541 C.3         1 SU3       0.1158
      7 CAF       -13.3226   -7.2042   12.5237 C.2         1 SU3       0.2070
      8 OAG       -12.6059   -8.1950   12.6041 O.2         1 SU3      -0.3942
      9 CAH       -14.0081   -6.8024   13.7682 C.3         1 SU3       0.1378
     10 NAI       -14.7398   -7.9477   14.2424 N.am        1 SU3      -0.2407
     11 CAJ       -16.0800   -8.0629   14.3515 C.2         1 SU3       0.3218
     12 OAK       -16.5513   -9.2283   14.8643 O.3         1 SU3      -0.2633
     13 CAL       -13.0884   -6.1995   14.9091 C.3         1 SU3       0.0025
     14 OAM       -16.9252   -7.0707   13.9809 O.2         1 SU3      -0.3774
     15 CAO       -15.9317   -6.6604    7.7251 C.2         1 SU3       0.4317
     16 OAP       -15.3741   -5.9661    6.7034 O.2         1 SU3      -0.3166
     17 NAQ       -16.9262   -7.5528    7.4897 N.am        1 SU3      -0.2080
     18 CAR        -7.5794   -5.3792   13.3100 C.3         1 SU3      -0.0516
     19 CAS        -7.6721   -5.3758   14.8529 C.3         1 SU3      -0.0651
     20 CAT       -13.9441   -5.9018   16.1907 C.3         1 SU3      -0.0558
     21 NAV       -10.5688   -6.1653   10.9391 N.am        1 SU3      -0.2737
     22 CAX        -9.1577   -6.1312   11.1673 C.3         1 SU3       0.1374
     23 CAY        -8.4055   -5.2659   10.2864 C.2         1 SU3       0.2444
     24 CAZ        -8.7904   -6.1174   12.6746 C.3         1 SU3      -0.0066
     25 CBA        -8.4744   -7.3582   11.8146 C.3         1 SU3      -0.0152
     26 CBB       -17.4551   -7.8500    6.2803 C.2         1 SU3       0.0383
     27 CBC       -18.4693   -8.7850    6.4513 C.ar        1 SU3      -0.0374
     28 CBD       -18.5482   -9.0697    7.8134 C.ar        1 SU3      -0.0293
     29 CBE       -17.5725   -8.2862    8.4265 C.2         1 SU3       0.0366
     30 CBF       -19.3302   -9.3955    5.5254 C.ar        1 SU3      -0.0689
     31 CBG       -20.2899  -10.3094    6.0031 C.ar        1 SU3      -0.0688
     32 CBH       -20.3756  -10.5996    7.3826 C.ar        1 SU3      -0.0606
     33 CBI       -19.5027   -9.9869    8.3182 C.ar        1 SU3      -0.0432
     34 CBJ       -19.5956  -10.2985    9.7709 C.3         1 SU3      -0.0194
     35 NBK        -7.8227   -5.7890    9.2235 N.am        1 SU3      -0.1552
     36 OBL        -8.4503   -4.0584   10.4817 O.2         1 SU3      -0.3404
     37 SBM        -6.9603   -4.9352    8.0522 S.o2        1 SU3       0.0645
     38 CBN        -6.6102   -5.9629    6.6040 C.3         1 SU3       0.1004
     39 OBO        -7.8096   -3.6826    7.5670 O.2         1 SU3      -0.1503
     40 OBP        -5.5974   -4.4307    8.6982 O.2         1 SU3      -0.1503
     41 CBQ        -7.4764   -7.2111    6.3706 C.3         1 SU3      -0.0268
     42 CBR        -7.6320   -5.9942    5.4536 C.3         1 SU3      -0.0268
     43 CBS       -18.4631  -11.2523   10.2423 C.3         1 SU3      -0.0433
     44 CBT       -18.5650  -11.6847   11.7316 C.3         1 SU3      -0.0507
     45 CBU       -18.2327  -10.5548   12.7496 C.3         1 SU3      -0.0453
     46 CBV       -18.2861  -10.9093   14.2838 C.3         1 SU3      -0.0072
     47 CBW       -17.9077   -9.6240   15.0994 C.3         1 SU3       0.0824
     48 CBX       -19.7284  -11.3429   14.7056 C.3         1 SU3      -0.0574
     49 CBY       -17.2853  -12.0549   14.6467 C.3         1 SU3      -0.0574
     50 CBZ       -11.9283   -7.1566   15.3474 C.3         1 SU3      -0.0558
     51 CCA       -12.4755   -4.8407   14.4268 C.3         1 SU3      -0.0558
     52 CD1       -14.3946   -5.5878   10.9939 C.3         1 SU3       0.0677
     53 OD2       -15.4998   -6.4393    8.9971 O.3         1 SU3      -0.2338
     54 H1        -13.0875   -7.9966    9.8336 H           1 SU3       0.0803
     55 H2        -13.0551   -6.4499    8.0463 H           1 SU3       0.0342
     56 H3        -12.4029   -5.1294    9.0377 H           1 SU3       0.0342
     57 H4        -14.6957   -4.5267    9.1029 H           1 SU3       0.0673
     58 H5        -14.7197   -6.0141   13.5389 H           1 SU3       0.0805
     59 H6        -14.2147   -8.7190   14.5234 H           1 SU3       0.1899
     60 H7         -6.6352   -5.8389   13.0141 H           1 SU3       0.0265
     61 H8         -7.5788   -4.3451   12.9660 H           1 SU3       0.0265
     62 H9         -6.8324   -4.8214   15.2746 H           1 SU3       0.0230
     63 H10        -7.6491   -6.3981   15.2405 H           1 SU3       0.0230
     64 H11        -8.5966   -4.8953   15.1828 H           1 SU3       0.0230
     65 H12       -13.3620   -5.3539   16.9382 H           1 SU3       0.0237
     66 H13       -14.2873   -6.8288   16.6573 H           1 SU3       0.0237
     67 H14       -14.8248   -5.3033   15.9458 H           1 SU3       0.0237
     68 H15       -11.0747   -5.4124   11.2837 H           1 SU3       0.1839
     69 H16        -9.6581   -6.2485   13.3248 H           1 SU3       0.0312
     70 H17        -7.4346   -7.5215   11.5103 H           1 SU3       0.0279
     71 H18        -9.1064   -8.2288   12.0061 H           1 SU3       0.0279
     72 H19       -17.1779   -7.4513    5.3806 H           1 SU3       0.0373
     73 H20       -17.3896   -8.2630    9.4326 H           1 SU3       0.0361
     74 H21       -19.2657   -9.1784    4.5280 H           1 SU3       0.0557
     75 H22       -20.9284  -10.7631    5.3464 H           1 SU3       0.0599
     76 H23       -21.0809  -11.2693    7.6983 H           1 SU3       0.0557
     77 H24       -20.5582  -10.7678    9.9929 H           1 SU3       0.0426
     78 H25       -19.5648   -9.3614   10.3302 H           1 SU3       0.0426
     79 H26        -7.8593   -6.7498    9.1176 H           1 SU3       0.2148
     80 H27        -5.5740   -6.0612    6.2793 H           1 SU3       0.0559
     81 H28        -8.3262   -7.3852    7.0327 H           1 SU3       0.0285
     82 H29        -6.9672   -8.0691    5.9293 H           1 SU3       0.0285
     83 H30        -7.2290   -6.1263    4.4468 H           1 SU3       0.0285
     84 H31        -8.5690   -5.4464    5.5815 H           1 SU3       0.0285
     85 H32       -17.4889  -10.7881   10.0718 H           1 SU3       0.0287
     86 H33       -18.5048  -12.1574    9.6297 H           1 SU3       0.0287
     87 H34       -17.8617  -12.5062   11.8806 H           1 SU3       0.0267
     88 H35       -19.5693  -12.0704   11.9149 H           1 SU3       0.0267
     89 H36       -18.9231   -9.7268   12.5725 H           1 SU3       0.0271
     90 H37       -17.2302  -10.1893   12.5090 H           1 SU3       0.0271
     91 H38       -18.6015   -8.8121   14.8584 H           1 SU3       0.0617
     92 H39       -17.9970   -9.8133   16.1721 H           1 SU3       0.0617
     93 H40       -20.0130  -12.2819   14.2297 H           1 SU3       0.0236
     94 H41       -20.4586  -10.5812   14.4243 H           1 SU3       0.0236
     95 H42       -19.7897  -11.4903   15.7863 H           1 SU3       0.0236
     96 H43       -16.2788  -11.8193   14.2944 H           1 SU3       0.0236
     97 H44       -17.5886  -13.0011   14.1965 H           1 SU3       0.0236
     98 H45       -17.2406  -12.2029   15.7283 H           1 SU3       0.0236
     99 H46       -11.2377   -7.3525   14.5278 H           1 SU3       0.0237
    100 H47       -12.3219   -8.1165   15.6905 H           1 SU3       0.0237
    101 H48       -11.3479   -6.7178   16.1628 H           1 SU3       0.0237
    102 H49       -13.2666   -4.1217   14.1950 H           1 SU3       0.0237
    103 H50       -11.8754   -4.9795   13.5281 H           1 SU3       0.0237
    104 H51       -11.8347   -4.3966   15.1955 H           1 SU3       0.0237
    105 H52       -14.0494   -4.6307   11.3943 H           1 SU3       0.0553
    106 H53       -15.3917   -5.8017   11.3891 H           1 SU3       0.0553
@<TRIPOS>BOND
     1     1     3   2
     2     1     4   1
     3    21     1  am
     4     4     2   1
     5     2     7  am
     6     2    52   1
     7     4     5   1
     8     5     6   1
     9     6    52   1
    10     6    53   1
    11     7     8   2
    12     7     9   1
    13     9    10   1
    14     9    13   1
    15    10    11  am
    16    11    12   1
    17    11    14   2
    18    12    47   1
    19    13    20   1
    20    13    50   1
    21    13    51   1
    22    15    16   2
    23    15    17  am
    24    53    15   1
    25    17    26   1
    26    17    29   1
    27    18    19   1
    28    24    18   1
    29    22    21   1
    30    22    23   1
    31    22    24   1
    32    22    25   1
    33    23    35  am
    34    23    36   2
    35    24    25   1
    36    26    27   2
    37    27    28  ar
    38    27    30  ar
    39    28    29   2
    40    28    33  ar
    41    30    31  ar
    42    31    32  ar
    43    32    33  ar
    44    33    34   1
    45    34    43   1
    46    35    37  am
    47    37    38   1
    48    37    39   2
    49    37    40   2
    50    38    41   1
    51    38    42   1
    52    41    42   1
    53    43    44   1
    54    44    45   1
    55    45    46   1
    56    46    47   1
    57    46    48   1
    58    46    49   1
    59     4    54   1
    60     5    55   1
    61     5    56   1
    62     6    57   1
    63     9    58   1
    64    10    59   1
    65    18    60   1
    66    18    61   1
    67    19    62   1
    68    19    63   1
    69    19    64   1
    70    20    65   1
    71    20    66   1
    72    20    67   1
    73    21    68   1
    74    24    69   1
    75    25    70   1
    76    25    71   1
    77    26    72   1
    78    29    73   1
    79    30    74   1
    80    31    75   1
    81    32    76   1
    82    34    77   1
    83    34    78   1
    84    35    79   1
    85    38    80   1
    86    41    81   1
    87    41    82   1
    88    42    83   1
    89    42    84   1
    90    43    85   1
    91    43    86   1
    92    44    87   1
    93    44    88   1
    94    45    89   1
    95    45    90   1
    96    47    91   1
    97    47    92   1
    98    48    93   1
    99    48    94   1
   100    48    95   1
   101    49    96   1
   102    49    97   1
   103    49    98   1
   104    50    99   1
   105    50   100   1
   106    50   101   1
   107    51   102   1
   108    51   103   1
   109    51   104   1
   110    52   105   1
   111    52   106   1
@<TRIPOS>SUBSTRUCTURE
     1  SU3      1

