@<TRIPOS>MOLECULE
3su5_ligand_051
   106   111
SMALL
GAST_HUCK
****
This file was generated by PARSER (from files_GN.cpp)

@<TRIPOS>ATOM
      1 C         -12.5530   -6.1585   10.9665 C.2         1 SU3       0.2013
      2 N         -10.3777   -5.3284   10.3177 N.am        1 SU3      -0.2469
      3 O         -13.3479   -5.8181   11.8231 O.2         1 SU3      -0.3947
      4 CA        -11.8054   -5.1151   10.2689 C.3         1 SU3       0.1363
      5 CB        -12.1912   -5.0307    8.7703 C.3         1 SU3       0.0206
      6 CG        -10.9928   -5.6131    8.0023 C.3         1 SU3       0.1158
      7 CAF        -9.6299   -5.1552   11.4262 C.2         1 SU3       0.2070
      8 OAG       -10.1734   -4.7010   12.4294 O.2         1 SU3      -0.3942
      9 CAH        -8.1770   -5.4001   11.5196 C.3         1 SU3       0.1378
     10 NAI        -7.5256   -4.1202   11.4020 N.am        1 SU3      -0.2407
     11 CAJ        -6.6225   -3.7526   10.4610 C.2         1 SU3       0.3218
     12 OAK        -6.0779   -2.5096   10.5581 O.3         1 SU3      -0.2633
     13 CAL        -7.6559   -6.2351   12.7671 C.3         1 SU3       0.0025
     14 OAM        -6.2088   -4.6071    9.4947 O.2         1 SU3      -0.3774
     15 CAO       -11.3168   -4.5467    5.7384 C.2         1 SU3       0.4317
     16 OAP       -12.4769   -5.1993    5.4875 O.2         1 SU3      -0.3166
     17 NAQ       -10.8415   -3.6032    4.8895 N.am        1 SU3      -0.2080
     18 CAR       -13.1051  -10.2559   13.2494 C.3         1 SU3      -0.0516
     19 CAS       -13.4169  -10.1185   14.7547 C.3         1 SU3      -0.0651
     20 CAT        -6.2119   -6.7724   12.4659 C.3         1 SU3      -0.0558
     21 NAV       -12.3658   -7.4377   10.6191 N.am        1 SU3      -0.2737
     22 CAX       -13.0496   -8.6364   11.0224 C.3         1 SU3       0.1374
     23 CAY       -12.7007   -9.7886   10.2039 C.2         1 SU3       0.2444
     24 CAZ       -13.2022   -8.8724   12.5443 C.3         1 SU3      -0.0066
     25 CBA       -14.4503   -8.6469   11.6741 C.3         1 SU3      -0.0152
     26 CBB       -11.3881   -3.2190    3.7130 C.2         1 SU3       0.0383
     27 CBC       -10.6225   -2.1873    3.1832 C.ar        1 SU3      -0.0374
     28 CBD        -9.5847   -1.9351    4.0775 C.ar        1 SU3      -0.0293
     29 CBE        -9.7420   -2.8485    5.1148 C.2         1 SU3       0.0366
     30 CBF       -10.7529   -1.4426    1.9985 C.ar        1 SU3      -0.0689
     31 CBG        -9.8063   -0.4328    1.7339 C.ar        1 SU3      -0.0688
     32 CBH        -8.7622   -0.1689    2.6479 C.ar        1 SU3      -0.0606
     33 CBI        -8.6348   -0.9118    3.8518 C.ar        1 SU3      -0.0432
     34 CBJ        -7.5584   -0.6189    4.8378 C.3         1 SU3      -0.0194
     35 NBK       -11.5615  -10.4230   10.4288 N.am        1 SU3      -0.1552
     36 OBL       -13.4373  -10.0766    9.2714 O.2         1 SU3      -0.3404
     37 SBM       -10.9801  -11.7741    9.5962 S.o2        1 SU3       0.0645
     38 CBN        -9.6278  -11.5172    8.4254 C.3         1 SU3       0.1004
     39 OBO       -10.4986  -12.8185   10.6939 O.2         1 SU3      -0.1503
     40 OBP       -12.1401  -12.5690    8.8501 O.2         1 SU3      -0.1503
     41 CBQ        -9.2252  -10.0894    8.0225 C.3         1 SU3      -0.0268
     42 CBR        -8.3527  -10.8824    9.0058 C.3         1 SU3      -0.0268
     43 CBS        -8.0999    0.0840    6.1165 C.3         1 SU3      -0.0433
     44 CBT        -7.0229    0.4157    7.1867 C.3         1 SU3      -0.0507
     45 CBU        -6.4627   -0.8188    7.9580 C.3         1 SU3      -0.0453
     46 CBV        -5.4175   -0.5489    9.1042 C.3         1 SU3      -0.0072
     47 CBW        -5.0277   -1.9160    9.7700 C.3         1 SU3       0.0824
     48 CBX        -4.1171    0.0896    8.5120 C.3         1 SU3      -0.0574
     49 CBY        -5.9930    0.3989   10.2066 C.3         1 SU3      -0.0574
     50 CBZ        -7.5768   -5.3978   14.0886 C.3         1 SU3      -0.0558
     51 CCA        -8.5685   -7.4809   13.0267 C.3         1 SU3      -0.0558
     52 CD1        -9.8388   -5.6354    9.0245 C.3         1 SU3       0.0677
     53 OD2       -10.6371   -4.7867    6.8905 O.3         1 SU3      -0.2338
     54 H1        -12.0212   -4.1316   10.7059 H           1 SU3       0.0803
     55 H2        -12.3462   -3.9849    8.4906 H           1 SU3       0.0342
     56 H3        -13.1106   -5.5726    8.5219 H           1 SU3       0.0342
     57 H4        -11.2119   -6.6304    7.6604 H           1 SU3       0.0673
     58 H5         -7.9014   -6.0084   10.6596 H           1 SU3       0.0805
     59 H6         -7.7385   -3.4589   12.0804 H           1 SU3       0.1899
     60 H7        -13.7933  -10.9807   12.8069 H           1 SU3       0.0265
     61 H8        -12.0911  -10.6471   13.1392 H           1 SU3       0.0265
     62 H9        -13.4480  -11.1023   15.2244 H           1 SU3       0.0230
     63 H10       -14.3814   -9.6283   14.9016 H           1 SU3       0.0230
     64 H11       -12.6407   -9.5222   15.2417 H           1 SU3       0.0230
     65 H12        -5.8354   -7.3719   13.2979 H           1 SU3       0.0237
     66 H13        -5.5132   -5.9504   12.3014 H           1 SU3       0.0237
     67 H14        -6.2051   -7.4032   11.5730 H           1 SU3       0.0237
     68 H15       -11.6792   -7.5700    9.9509 H           1 SU3       0.1839
     69 H16       -12.9148   -8.0090   13.1506 H           1 SU3       0.0312
     70 H17       -15.0682   -9.5230   11.4618 H           1 SU3       0.0279
     71 H18       -14.9639   -7.6957   11.8001 H           1 SU3       0.0279
     72 H19       -12.2311   -3.6063    3.2818 H           1 SU3       0.0373
     73 H20        -9.1279   -2.9143    5.9301 H           1 SU3       0.0361
     74 H21       -11.5156   -1.6308    1.3453 H           1 SU3       0.0557
     75 H22        -9.8817    0.1177    0.8758 H           1 SU3       0.0599
     76 H23        -8.0993    0.5791    2.4342 H           1 SU3       0.0557
     77 H24        -6.7980    0.0257    4.3887 H           1 SU3       0.0426
     78 H25        -7.0652   -1.5568    5.1000 H           1 SU3       0.0426
     79 H26       -11.0125  -10.0989   11.1596 H           1 SU3       0.2148
     80 H27        -9.4223  -12.3013    7.6947 H           1 SU3       0.0559
     81 H28        -9.7945   -9.2708    8.4635 H           1 SU3       0.0285
     82 H29        -8.8047   -9.9726    7.0225 H           1 SU3       0.0285
     83 H30        -7.4078  -11.2427    8.5950 H           1 SU3       0.0285
     84 H31        -8.3879  -10.5213   10.0349 H           1 SU3       0.0285
     85 H32        -8.8782   -0.5231    6.5841 H           1 SU3       0.0287
     86 H33        -8.5664    1.0249    5.8087 H           1 SU3       0.0287
     87 H34        -7.4868    1.0936    7.9059 H           1 SU3       0.0267
     88 H35        -6.2079    0.9558    6.7012 H           1 SU3       0.0267
     89 H36        -6.0045   -1.4916    7.2288 H           1 SU3       0.0271
     90 H37        -7.3089   -1.3529    8.3905 H           1 SU3       0.0271
     91 H38        -4.6754   -2.6111    9.0026 H           1 SU3       0.0617
     92 H39        -4.1951   -1.7584   10.4598 H           1 SU3       0.0617
     93 H40        -4.3113    1.0853    8.1107 H           1 SU3       0.0236
     94 H41        -3.7137   -0.5299    7.7079 H           1 SU3       0.0236
     95 H42        -3.3469    0.1909    9.2803 H           1 SU3       0.0236
     96 H43        -6.9549    0.0304   10.5698 H           1 SU3       0.0236
     97 H44        -6.1391    1.4104    9.8245 H           1 SU3       0.0236
     98 H45        -5.3093    0.4640   11.0563 H           1 SU3       0.0236
     99 H46        -8.5490   -4.9964   14.3687 H           1 SU3       0.0237
    100 H47        -6.8800   -4.5652   13.9797 H           1 SU3       0.0237
    101 H48        -7.2294   -6.0158   14.9201 H           1 SU3       0.0237
    102 H49        -8.6540   -8.0917   12.1253 H           1 SU3       0.0237
    103 H50        -9.5725   -7.1773   13.3301 H           1 SU3       0.0237
    104 H51        -8.1577   -8.1053   13.8237 H           1 SU3       0.0237
    105 H52        -9.3683   -6.6229    9.0186 H           1 SU3       0.0553
    106 H53        -9.0908   -4.8788    8.7703 H           1 SU3       0.0553
@<TRIPOS>BOND
     1     1     3   2
     2     1     4   1
     3    21     1  am
     4     4     2   1
     5     2     7  am
     6     2    52   1
     7     4     5   1
     8     5     6   1
     9     6    52   1
    10     6    53   1
    11     7     8   2
    12     7     9   1
    13     9    10   1
    14     9    13   1
    15    10    11  am
    16    11    12   1
    17    11    14   2
    18    12    47   1
    19    13    20   1
    20    13    50   1
    21    13    51   1
    22    15    16   2
    23    15    17  am
    24    53    15   1
    25    17    26   1
    26    17    29   1
    27    18    19   1
    28    24    18   1
    29    22    21   1
    30    22    23   1
    31    22    24   1
    32    22    25   1
    33    23    35  am
    34    23    36   2
    35    24    25   1
    36    26    27   2
    37    27    28  ar
    38    27    30  ar
    39    28    29   2
    40    28    33  ar
    41    30    31  ar
    42    31    32  ar
    43    32    33  ar
    44    33    34   1
    45    34    43   1
    46    35    37  am
    47    37    38   1
    48    37    39   2
    49    37    40   2
    50    38    41   1
    51    38    42   1
    52    41    42   1
    53    43    44   1
    54    44    45   1
    55    45    46   1
    56    46    47   1
    57    46    48   1
    58    46    49   1
    59     4    54   1
    60     5    55   1
    61     5    56   1
    62     6    57   1
    63     9    58   1
    64    10    59   1
    65    18    60   1
    66    18    61   1
    67    19    62   1
    68    19    63   1
    69    19    64   1
    70    20    65   1
    71    20    66   1
    72    20    67   1
    73    21    68   1
    74    24    69   1
    75    25    70   1
    76    25    71   1
    77    26    72   1
    78    29    73   1
    79    30    74   1
    80    31    75   1
    81    32    76   1
    82    34    77   1
    83    34    78   1
    84    35    79   1
    85    38    80   1
    86    41    81   1
    87    41    82   1
    88    42    83   1
    89    42    84   1
    90    43    85   1
    91    43    86   1
    92    44    87   1
    93    44    88   1
    94    45    89   1
    95    45    90   1
    96    47    91   1
    97    47    92   1
    98    48    93   1
    99    48    94   1
   100    48    95   1
   101    49    96   1
   102    49    97   1
   103    49    98   1
   104    50    99   1
   105    50   100   1
   106    50   101   1
   107    51   102   1
   108    51   103   1
   109    51   104   1
   110    52   105   1
   111    52   106   1
@<TRIPOS>SUBSTRUCTURE
     1  SU3      1

