@<TRIPOS>MOLECULE
3su5_ligand_040
   106   111
SMALL
GAST_HUCK
****
This file was generated by PARSER (from files_GN.cpp)

@<TRIPOS>ATOM
      1 C         -11.1025   -5.8970    9.8960 C.2         1 SU3       0.2013
      2 N         -13.1836   -6.0770   11.0506 N.am        1 SU3      -0.2469
      3 O         -10.7657   -4.8926    9.2785 O.2         1 SU3      -0.3947
      4 CA        -12.4870   -6.3642    9.8162 C.3         1 SU3       0.1363
      5 CB        -13.3702   -5.6864    8.7440 C.3         1 SU3       0.0206
      6 CG        -13.9711   -4.4662    9.4610 C.3         1 SU3       0.1158
      7 CAF       -13.1606   -6.8781   12.1351 C.2         1 SU3       0.2070
      8 OAG       -12.6532   -7.9894   12.0032 O.2         1 SU3      -0.3942
      9 CAH       -13.8331   -6.6130   13.4229 C.3         1 SU3       0.1378
     10 NAI       -14.9986   -7.4631   13.4557 N.am        1 SU3      -0.2407
     11 CAJ       -16.2779   -7.0565   13.6450 C.2         1 SU3       0.3218
     12 OAK       -17.2427   -8.0131   13.7150 O.3         1 SU3      -0.2633
     13 CAL       -12.9399   -6.7269   14.7344 C.3         1 SU3       0.0025
     14 OAM       -16.5885   -5.7511   13.8387 O.2         1 SU3      -0.3774
     15 CAO       -15.7328   -3.6456    7.8443 C.2         1 SU3       0.4317
     16 OAP       -14.8341   -3.2002    6.9367 O.2         1 SU3      -0.3166
     17 NAQ       -17.0651   -3.6047    7.6028 N.am        1 SU3      -0.2080
     18 CAR        -7.5051   -5.4078   13.2008 C.3         1 SU3      -0.0516
     19 CAS        -7.6649   -5.3930   14.7408 C.3         1 SU3      -0.0651
     20 CAT       -12.1468   -5.3913   14.9539 C.3         1 SU3      -0.0558
     21 NAV       -10.2476   -6.5614   10.6663 N.am        1 SU3      -0.2737
     22 CAX        -8.8876   -6.2088   10.9956 C.3         1 SU3       0.1374
     23 CAY        -8.1251   -5.3066   10.1394 C.2         1 SU3       0.2444
     24 CAZ        -8.5856   -6.3037   12.5206 C.3         1 SU3      -0.0066
     25 CBA        -8.0919   -7.4078   11.5622 C.3         1 SU3      -0.0152
     26 CBB       -17.6766   -3.0832    6.5164 C.2         1 SU3       0.0383
     27 CBC       -19.0461   -3.2977    6.6360 C.ar        1 SU3      -0.0374
     28 CBD       -19.2590   -3.9827    7.8279 C.ar        1 SU3      -0.0293
     29 CBE       -18.0076   -4.1370    8.4134 C.2         1 SU3       0.0366
     30 CBF       -20.1187   -2.9609    5.7918 C.ar        1 SU3      -0.0689
     31 CBG       -21.4188   -3.3415    6.1788 C.ar        1 SU3      -0.0688
     32 CBH       -21.6312   -4.0550    7.3802 C.ar        1 SU3      -0.0606
     33 CBI       -20.5485   -4.4024    8.2301 C.ar        1 SU3      -0.0432
     34 CBJ       -20.7522   -5.2161    9.4613 C.3         1 SU3      -0.0194
     35 NBK        -7.6258   -5.7835    9.0067 N.am        1 SU3      -0.1552
     36 OBL        -8.1811   -4.1054   10.3745 O.2         1 SU3      -0.3404
     37 SBM        -6.8987   -4.8592    7.7998 S.o2        1 SU3       0.0645
     38 CBN        -6.6992   -5.7672    6.2461 C.3         1 SU3       0.1004
     39 OBO        -7.8050   -3.5890    7.4806 O.2         1 SU3      -0.1503
     40 OBP        -5.4693   -4.3639    8.2948 O.2         1 SU3      -0.1503
     41 CBQ        -7.3652   -7.1417    6.0725 C.3         1 SU3      -0.0268
     42 CBR        -7.9500   -5.9116    5.3603 C.3         1 SU3      -0.0268
     43 CBS       -20.2613   -6.6816    9.2800 C.3         1 SU3      -0.0433
     44 CBT       -20.4796   -7.6034   10.5113 C.3         1 SU3      -0.0507
     45 CBU       -19.5167   -7.3415   11.7111 C.3         1 SU3      -0.0453
     46 CBV       -19.6444   -8.2955   12.9583 C.3         1 SU3      -0.0072
     47 CBW       -18.6295   -7.8402   14.0642 C.3         1 SU3       0.0824
     48 CBX       -21.0831   -8.2163   13.5725 C.3         1 SU3      -0.0574
     49 CBY       -19.3357   -9.7802   12.5797 C.3         1 SU3      -0.0574
     50 CBZ       -13.8654   -6.9404   15.9842 C.3         1 SU3      -0.0558
     51 CCA       -11.8981   -7.9005   14.7097 C.3         1 SU3      -0.0558
     52 CD1       -13.9945   -4.8949   10.9420 C.3         1 SU3       0.0677
     53 OD2       -15.2969   -4.1819    9.0125 O.3         1 SU3      -0.2338
     54 H1        -12.4813   -7.4307    9.5772 H           1 SU3       0.0803
     55 H2        -14.1785   -6.3655    8.4538 H           1 SU3       0.0342
     56 H3        -12.8220   -5.4015    7.8430 H           1 SU3       0.0342
     57 H4        -13.3375   -3.5844    9.3412 H           1 SU3       0.0673
     58 H5        -14.1729   -5.5756   13.4186 H           1 SU3       0.0805
     59 H6        -14.8475   -8.4198   13.3778 H           1 SU3       0.1899
     60 H7         -6.4878   -5.7490   12.9579 H           1 SU3       0.0265
     61 H8         -7.6116   -4.3797   12.8400 H           1 SU3       0.0265
     62 H9         -6.8587   -4.8065   15.1878 H           1 SU3       0.0230
     63 H10        -7.6293   -6.4100   15.1416 H           1 SU3       0.0230
     64 H11        -8.6196   -4.9317   15.0101 H           1 SU3       0.0230
     65 H12       -11.5043   -5.4578   15.8360 H           1 SU3       0.0237
     66 H13       -12.8253   -4.5452   15.0918 H           1 SU3       0.0237
     67 H14       -11.5165   -5.1727   14.0923 H           1 SU3       0.0237
     68 H15       -10.6028   -7.3631   11.0977 H           1 SU3       0.1839
     69 H16        -9.4435   -6.6158   13.1365 H           1 SU3       0.0312
     70 H17        -7.0137   -7.4390   11.3554 H           1 SU3       0.0279
     71 H18        -8.6290   -8.3559   11.6706 H           1 SU3       0.0279
     72 H19       -17.2200   -2.6191    5.7283 H           1 SU3       0.0373
     73 H20       -17.8375   -4.6074    9.3023 H           1 SU3       0.0361
     74 H21       -19.9595   -2.4581    4.9159 H           1 SU3       0.0557
     75 H22       -22.2155   -3.1070    5.5795 H           1 SU3       0.0599
     76 H23       -22.5858   -4.3329    7.6246 H           1 SU3       0.0557
     77 H24       -21.8123   -5.2379    9.7265 H           1 SU3       0.0426
     78 H25       -20.2265   -4.7373   10.2893 H           1 SU3       0.0426
     79 H26        -7.6816   -6.7427    8.8672 H           1 SU3       0.2148
     80 H27        -5.7938   -5.5925    5.6654 H           1 SU3       0.0559
     81 H28        -7.9926   -7.5226    6.8804 H           1 SU3       0.0285
     82 H29        -6.8439   -7.8476    5.4235 H           1 SU3       0.0285
     83 H30        -7.7889   -5.8956    4.2788 H           1 SU3       0.0285
     84 H31        -8.9072   -5.5654    5.7639 H           1 SU3       0.0285
     85 H32       -19.2013   -6.6956    9.0153 H           1 SU3       0.0287
     86 H33       -20.8092   -7.1141    8.4359 H           1 SU3       0.0287
     87 H34       -20.3383   -8.6297   10.1686 H           1 SU3       0.0267
     88 H35       -21.5172   -7.5030   10.8330 H           1 SU3       0.0267
     89 H36       -19.6744   -6.3128   12.0450 H           1 SU3       0.0271
     90 H37       -18.4925   -7.3984   11.3317 H           1 SU3       0.0271
     91 H38       -18.8362   -6.8036   14.3468 H           1 SU3       0.0617
     92 H39       -18.7775   -8.4451   14.9606 H           1 SU3       0.0617
     93 H40       -21.8315   -8.6171   12.8874 H           1 SU3       0.0236
     94 H41       -21.3503   -7.1826   13.8039 H           1 SU3       0.0236
     95 H42       -21.1457   -8.7954   14.4964 H           1 SU3       0.0236
     96 H43       -18.3703   -9.8582   12.0753 H           1 SU3       0.0236
     97 H44       -20.0996  -10.1890   11.9173 H           1 SU3       0.0236
     98 H45       -19.3041  -10.4080   13.4727 H           1 SU3       0.0236
     99 H46       -14.3781   -7.9045   15.9170 H           1 SU3       0.0237
    100 H47       -14.6248   -6.1543   16.0522 H           1 SU3       0.0237
    101 H48       -13.2899   -6.9412   16.9151 H           1 SU3       0.0237
    102 H49       -11.0935   -7.6760   13.9938 H           1 SU3       0.0237
    103 H50       -12.3879   -8.8450   14.4329 H           1 SU3       0.0237
    104 H51       -11.4334   -8.0305   15.6954 H           1 SU3       0.0237
    105 H52       -13.6037   -4.0986   11.5851 H           1 SU3       0.0553
    106 H53       -15.0217   -5.1318   11.2374 H           1 SU3       0.0553
@<TRIPOS>BOND
     1     1     3   2
     2     1     4   1
     3    21     1  am
     4     4     2   1
     5     2     7  am
     6     2    52   1
     7     4     5   1
     8     5     6   1
     9     6    52   1
    10     6    53   1
    11     7     8   2
    12     7     9   1
    13     9    10   1
    14     9    13   1
    15    10    11  am
    16    11    12   1
    17    11    14   2
    18    12    47   1
    19    13    20   1
    20    13    50   1
    21    13    51   1
    22    15    16   2
    23    15    17  am
    24    53    15   1
    25    17    26   1
    26    17    29   1
    27    18    19   1
    28    24    18   1
    29    22    21   1
    30    22    23   1
    31    22    24   1
    32    22    25   1
    33    23    35  am
    34    23    36   2
    35    24    25   1
    36    26    27   2
    37    27    28  ar
    38    27    30  ar
    39    28    29   2
    40    28    33  ar
    41    30    31  ar
    42    31    32  ar
    43    32    33  ar
    44    33    34   1
    45    34    43   1
    46    35    37  am
    47    37    38   1
    48    37    39   2
    49    37    40   2
    50    38    41   1
    51    38    42   1
    52    41    42   1
    53    43    44   1
    54    44    45   1
    55    45    46   1
    56    46    47   1
    57    46    48   1
    58    46    49   1
    59     4    54   1
    60     5    55   1
    61     5    56   1
    62     6    57   1
    63     9    58   1
    64    10    59   1
    65    18    60   1
    66    18    61   1
    67    19    62   1
    68    19    63   1
    69    19    64   1
    70    20    65   1
    71    20    66   1
    72    20    67   1
    73    21    68   1
    74    24    69   1
    75    25    70   1
    76    25    71   1
    77    26    72   1
    78    29    73   1
    79    30    74   1
    80    31    75   1
    81    32    76   1
    82    34    77   1
    83    34    78   1
    84    35    79   1
    85    38    80   1
    86    41    81   1
    87    41    82   1
    88    42    83   1
    89    42    84   1
    90    43    85   1
    91    43    86   1
    92    44    87   1
    93    44    88   1
    94    45    89   1
    95    45    90   1
    96    47    91   1
    97    47    92   1
    98    48    93   1
    99    48    94   1
   100    48    95   1
   101    49    96   1
   102    49    97   1
   103    49    98   1
   104    50    99   1
   105    50   100   1
   106    50   101   1
   107    51   102   1
   108    51   103   1
   109    51   104   1
   110    52   105   1
   111    52   106   1
@<TRIPOS>SUBSTRUCTURE
     1  SU3      1

