@<TRIPOS>MOLECULE
3su5_ligand_029
   106   111
SMALL
GAST_HUCK
****
This file was generated by PARSER (from files_GN.cpp)

@<TRIPOS>ATOM
      1 C         -11.5565   -8.3569   10.9825 C.2         1 SU3       0.2013
      2 N         -13.0944  -10.1546   11.5734 N.am        1 SU3      -0.2469
      3 O         -12.3966   -7.6804   10.3959 O.2         1 SU3      -0.3947
      4 CA        -11.7761   -9.7981   11.0997 C.3         1 SU3       0.1363
      5 CB        -11.5996  -10.5135    9.7373 C.3         1 SU3       0.0206
      6 CG        -12.6550  -11.6303    9.7585 C.3         1 SU3       0.1158
      7 CAF       -13.6094   -9.7294   12.7431 C.2         1 SU3       0.2070
      8 OAG       -12.8501   -9.1579   13.5222 O.2         1 SU3      -0.3942
      9 CAH       -14.9910   -9.9191   13.2117 C.3         1 SU3       0.1378
     10 NAI       -14.9485  -10.7106   14.4149 N.am        1 SU3      -0.2407
     11 CAJ       -15.5298  -11.9239   14.5930 C.2         1 SU3       0.3218
     12 OAK       -15.4866  -12.4678   15.8365 O.3         1 SU3      -0.2633
     13 CAL       -15.8399   -8.5898   13.4054 C.3         1 SU3       0.0025
     14 OAM       -16.1820  -12.5607   13.5870 O.2         1 SU3      -0.3774
     15 CAO       -11.2566  -13.7323    9.7825 C.2         1 SU3       0.4317
     16 OAP       -10.6486  -13.4156    8.6115 O.2         1 SU3      -0.3166
     17 NAQ       -11.0047  -14.9199   10.3887 N.am        1 SU3      -0.2080
     18 CAR        -7.8626   -4.8917   11.4453 C.3         1 SU3      -0.0516
     19 CAS        -6.8880   -4.4411   10.3281 C.3         1 SU3      -0.0651
     20 CAT       -16.1148   -7.9336   12.0095 C.3         1 SU3      -0.0558
     21 NAV       -10.4714   -7.7959   11.5042 N.am        1 SU3      -0.2737
     22 CAX       -10.1545   -6.3989   11.5155 C.3         1 SU3       0.1374
     23 CAY       -10.6389   -5.6142   12.6514 C.2         1 SU3       0.2444
     24 CAZ        -8.7357   -6.0918   10.9757 C.3         1 SU3      -0.0066
     25 CBA        -9.9575   -5.7443   10.1189 C.3         1 SU3      -0.0152
     26 CBB       -10.1449  -15.8681    9.9412 C.2         1 SU3       0.0383
     27 CBC       -10.2183  -16.9722   10.7855 C.ar        1 SU3      -0.0374
     28 CBD       -11.1448  -16.6741   11.7790 C.ar        1 SU3      -0.0293
     29 CBE       -11.6049  -15.3873   11.5086 C.2         1 SU3       0.0366
     30 CBF        -9.5621  -18.2122   10.7413 C.ar        1 SU3      -0.0689
     31 CBG        -9.8642  -19.1674   11.7322 C.ar        1 SU3      -0.0688
     32 CBH       -10.8108  -18.8757   12.7400 C.ar        1 SU3      -0.0606
     33 CBI       -11.4723  -17.6193   12.7836 C.ar        1 SU3      -0.0432
     34 CBJ       -12.4756  -17.3230   13.8394 C.3         1 SU3      -0.0194
     35 NBK       -10.8214   -6.2117   13.8223 N.am        1 SU3      -0.1552
     36 OBL       -10.8889   -4.4231   12.4840 O.2         1 SU3      -0.3404
     37 SBM       -11.5096   -5.4673   15.1753 S.o2        1 SU3       0.0645
     38 CBN       -12.0636   -6.7063   16.3586 C.3         1 SU3       0.1004
     39 OBO       -10.4301   -4.4950   15.8315 O.2         1 SU3      -0.1503
     40 OBP       -12.7828   -4.6253   14.7038 O.2         1 SU3      -0.1503
     41 CBQ       -11.7519   -6.5096   17.8510 C.3         1 SU3      -0.0268
     42 CBR       -13.1792   -6.2938   17.3326 C.3         1 SU3      -0.0268
     43 CBS       -11.8974  -16.4131   14.9583 C.3         1 SU3      -0.0433
     44 CBT       -12.8946  -16.1131   16.1088 C.3         1 SU3      -0.0507
     45 CBU       -14.0330  -15.1172   15.7357 C.3         1 SU3      -0.0453
     46 CBV       -15.0389  -14.6991   16.8762 C.3         1 SU3      -0.0072
     47 CBW       -16.0864  -13.6953   16.2865 C.3         1 SU3       0.0824
     48 CBX       -15.8117  -15.9495   17.4139 C.3         1 SU3      -0.0574
     49 CBY       -14.2965  -14.0114   18.0678 C.3         1 SU3      -0.0574
     50 CBZ       -17.2309   -8.9311   14.0482 C.3         1 SU3      -0.0558
     51 CCA       -15.1478   -7.5267   14.3197 C.3         1 SU3      -0.0558
     52 CD1       -13.7558  -11.0516   10.6691 C.3         1 SU3       0.0677
     53 OD2       -12.1751  -12.8737   10.3057 O.3         1 SU3      -0.2338
     54 H1        -11.0526  -10.2332   11.7955 H           1 SU3       0.0803
     55 H2        -10.5869  -10.8993    9.6158 H           1 SU3       0.0342
     56 H3        -11.8161   -9.8485    8.8975 H           1 SU3       0.0342
     57 H4        -13.0543  -11.8173    8.7571 H           1 SU3       0.0673
     58 H5        -15.5399  -10.4773   12.4553 H           1 SU3       0.0805
     59 H6        -14.5105  -10.3164   15.1861 H           1 SU3       0.1899
     60 H7         -8.4923   -4.0353   11.7379 H           1 SU3       0.0265
     61 H8         -7.2768   -5.2238   12.3110 H           1 SU3       0.0265
     62 H9         -6.2974   -3.5950   10.6954 H           1 SU3       0.0230
     63 H10        -7.4426   -4.1267    9.4349 H           1 SU3       0.0230
     64 H11        -6.2032   -5.2590   10.0621 H           1 SU3       0.0230
     65 H12       -16.6741   -6.9982   12.1169 H           1 SU3       0.0237
     66 H13       -16.7038   -8.6031   11.3728 H           1 SU3       0.0237
     67 H14       -15.1812   -7.7094   11.4892 H           1 SU3       0.0237
     68 H15        -9.8583   -8.3836   11.9734 H           1 SU3       0.1839
     69 H16        -8.1975   -6.9670   10.6088 H           1 SU3       0.0312
     70 H17       -10.1943   -4.6803   10.0263 H           1 SU3       0.0279
     71 H18       -10.0992   -6.3838    9.2412 H           1 SU3       0.0279
     72 H19        -9.5571  -15.8130    9.1094 H           1 SU3       0.0373
     73 H20       -12.3124  -14.8910   12.0526 H           1 SU3       0.0361
     74 H21        -8.8871  -18.4237   10.0029 H           1 SU3       0.0557
     75 H22        -9.4025  -20.0794   11.7170 H           1 SU3       0.0599
     76 H23       -11.0127  -19.5900   13.4433 H           1 SU3       0.0557
     77 H24       -12.8286  -18.2546   14.2965 H           1 SU3       0.0426
     78 H25       -13.3466  -16.8535   13.3737 H           1 SU3       0.0426
     79 H26       -10.5961   -7.1634   13.8954 H           1 SU3       0.2148
     80 H27       -12.1085   -7.7489   16.0366 H           1 SU3       0.0559
     81 H28       -11.2415   -5.5963   18.1558 H           1 SU3       0.0285
     82 H29       -11.6242   -7.4092   18.4512 H           1 SU3       0.0285
     83 H30       -13.8911   -7.0673   17.6073 H           1 SU3       0.0285
     84 H31       -13.5181   -5.2585   17.2735 H           1 SU3       0.0285
     85 H32       -11.5486  -15.4697   14.5307 H           1 SU3       0.0287
     86 H33       -11.0290  -16.9170   15.3902 H           1 SU3       0.0287
     87 H34       -12.3185  -15.6888   16.9295 H           1 SU3       0.0267
     88 H35       -13.3226  -17.0555   16.4576 H           1 SU3       0.0267
     89 H36       -14.6115  -15.5542   14.9162 H           1 SU3       0.0271
     90 H37       -13.5580  -14.2124   15.3413 H           1 SU3       0.0271
     91 H38       -16.6427  -14.1793   15.4811 H           1 SU3       0.0617
     92 H39       -16.8121  -13.4252   17.0554 H           1 SU3       0.0617
     93 H40       -15.1409  -16.6469   17.9207 H           1 SU3       0.0236
     94 H41       -16.3031  -16.4827   16.5960 H           1 SU3       0.0236
     95 H42       -16.5784  -15.6512   18.1338 H           1 SU3       0.0236
     96 H43       -13.6835  -13.1774   17.7191 H           1 SU3       0.0236
     97 H44       -13.6454  -14.7194   18.5847 H           1 SU3       0.0236
     98 H45       -15.0099  -13.6279   18.8006 H           1 SU3       0.0236
     99 H46       -17.1072   -9.2711   15.0824 H           1 SU3       0.0237
    100 H47       -17.7341   -9.7215   13.4893 H           1 SU3       0.0237
    101 H48       -17.8862   -8.0566   14.0650 H           1 SU3       0.0237
    102 H49       -14.2712   -7.0926   13.8283 H           1 SU3       0.0237
    103 H50       -14.8279   -7.9832   15.2582 H           1 SU3       0.0237
    104 H51       -15.8254   -6.7018   14.5549 H           1 SU3       0.0237
    105 H52       -14.4925  -10.4922   10.0836 H           1 SU3       0.0553
    106 H53       -14.2501  -11.8732   11.1953 H           1 SU3       0.0553
@<TRIPOS>BOND
     1     1     3   2
     2     1     4   1
     3    21     1  am
     4     4     2   1
     5     2     7  am
     6     2    52   1
     7     4     5   1
     8     5     6   1
     9     6    52   1
    10     6    53   1
    11     7     8   2
    12     7     9   1
    13     9    10   1
    14     9    13   1
    15    10    11  am
    16    11    12   1
    17    11    14   2
    18    12    47   1
    19    13    20   1
    20    13    50   1
    21    13    51   1
    22    15    16   2
    23    15    17  am
    24    53    15   1
    25    17    26   1
    26    17    29   1
    27    18    19   1
    28    24    18   1
    29    22    21   1
    30    22    23   1
    31    22    24   1
    32    22    25   1
    33    23    35  am
    34    23    36   2
    35    24    25   1
    36    26    27   2
    37    27    28  ar
    38    27    30  ar
    39    28    29   2
    40    28    33  ar
    41    30    31  ar
    42    31    32  ar
    43    32    33  ar
    44    33    34   1
    45    34    43   1
    46    35    37  am
    47    37    38   1
    48    37    39   2
    49    37    40   2
    50    38    41   1
    51    38    42   1
    52    41    42   1
    53    43    44   1
    54    44    45   1
    55    45    46   1
    56    46    47   1
    57    46    48   1
    58    46    49   1
    59     4    54   1
    60     5    55   1
    61     5    56   1
    62     6    57   1
    63     9    58   1
    64    10    59   1
    65    18    60   1
    66    18    61   1
    67    19    62   1
    68    19    63   1
    69    19    64   1
    70    20    65   1
    71    20    66   1
    72    20    67   1
    73    21    68   1
    74    24    69   1
    75    25    70   1
    76    25    71   1
    77    26    72   1
    78    29    73   1
    79    30    74   1
    80    31    75   1
    81    32    76   1
    82    34    77   1
    83    34    78   1
    84    35    79   1
    85    38    80   1
    86    41    81   1
    87    41    82   1
    88    42    83   1
    89    42    84   1
    90    43    85   1
    91    43    86   1
    92    44    87   1
    93    44    88   1
    94    45    89   1
    95    45    90   1
    96    47    91   1
    97    47    92   1
    98    48    93   1
    99    48    94   1
   100    48    95   1
   101    49    96   1
   102    49    97   1
   103    49    98   1
   104    50    99   1
   105    50   100   1
   106    50   101   1
   107    51   102   1
   108    51   103   1
   109    51   104   1
   110    52   105   1
   111    52   106   1
@<TRIPOS>SUBSTRUCTURE
     1  SU3      1

