@<TRIPOS>MOLECULE
3su5_ligand_058
   106   111
SMALL
GAST_HUCK
****
This file was generated by PARSER (from files_GN.cpp)

@<TRIPOS>ATOM
      1 C         -16.5714   -9.5155   14.2085 C.2         1 SU3       0.2013
      2 N         -14.5015   -8.5827   13.3153 N.am        1 SU3      -0.2469
      3 O         -16.4564   -8.7318   15.1459 O.2         1 SU3      -0.3947
      4 CA        -15.6164   -9.4776   13.0924 C.3         1 SU3       0.1363
      5 CB        -14.9442  -10.8410   12.7866 C.3         1 SU3       0.0206
      6 CG        -13.5827  -10.7986   13.4968 C.3         1 SU3       0.1158
      7 CAF       -14.5575   -7.2448   13.1662 C.2         1 SU3       0.2070
      8 OAG       -15.5730   -6.7605   12.6816 O.2         1 SU3      -0.3942
      9 CAH       -13.4657   -6.3025   13.4818 C.3         1 SU3       0.1378
     10 NAI       -12.8630   -5.9089   12.2329 N.am        1 SU3      -0.2407
     11 CAJ       -11.5596   -6.0255   11.8954 C.2         1 SU3       0.3218
     12 OAK       -11.1754   -5.5241   10.6929 O.3         1 SU3      -0.2633
     13 CAL       -13.8333   -5.0497   14.3812 C.3         1 SU3       0.0025
     14 OAM       -10.6452   -6.5518   12.7431 O.2         1 SU3      -0.3774
     15 CAO       -12.3327  -12.6790   12.3586 C.2         1 SU3       0.4317
     16 OAP       -13.1173  -13.6543   12.8851 O.2         1 SU3      -0.3166
     17 NAQ       -11.3503  -12.9697   11.4714 N.am        1 SU3      -0.2080
     18 CAR       -19.4698  -12.6215   16.7292 C.3         1 SU3      -0.0516
     19 CAS       -19.4754  -14.0082   16.0428 C.3         1 SU3      -0.0651
     20 CAT       -14.4520   -3.8563   13.5799 C.3         1 SU3      -0.0558
     21 NAV       -17.5905  -10.3706   14.1806 N.am        1 SU3      -0.2737
     22 CAX       -18.6696  -10.4953   15.1213 C.3         1 SU3       0.1374
     23 CAY       -20.0044  -10.4680   14.5494 C.2         1 SU3       0.2444
     24 CAZ       -18.4018  -11.6727   16.1184 C.3         1 SU3      -0.0066
     25 CBA       -18.5047  -10.2302   16.6395 C.3         1 SU3      -0.0152
     26 CBB       -10.9693  -14.1993   11.0623 C.2         1 SU3       0.0383
     27 CBC        -9.9403  -14.0629   10.1368 C.ar        1 SU3      -0.0374
     28 CBD        -9.7141  -12.7002    9.9628 C.ar        1 SU3      -0.0293
     29 CBE       -10.5952  -12.0502   10.8221 C.2         1 SU3       0.0366
     30 CBF        -9.1890  -15.0182    9.4339 C.ar        1 SU3      -0.0689
     31 CBG        -8.1935  -14.5670    8.5453 C.ar        1 SU3      -0.0688
     32 CBH        -7.9770  -13.1835    8.3532 C.ar        1 SU3      -0.0606
     33 CBI        -8.7476  -12.2166    9.0502 C.ar        1 SU3      -0.0432
     34 CBJ        -8.5576  -10.7571    8.8152 C.3         1 SU3      -0.0194
     35 NBK       -20.8193   -9.4767   14.8724 N.am        1 SU3      -0.1552
     36 OBL       -20.3225  -11.3717   13.7831 O.2         1 SU3      -0.3404
     37 SBM       -22.4477   -9.3322   14.4489 S.o2        1 SU3       0.0645
     38 CBN       -23.4394   -9.2190   15.9583 C.3         1 SU3       0.1004
     39 OBO       -22.6058   -8.0184   13.5574 O.2         1 SU3      -0.1503
     40 OBP       -22.9461  -10.5680   13.5698 O.2         1 SU3      -0.1503
     41 CBQ       -24.8566   -8.6497   15.8080 C.3         1 SU3      -0.0268
     42 CBR       -24.6608  -10.1281   16.1666 C.3         1 SU3      -0.0268
     43 CBS        -9.7348  -10.1299    8.0119 C.3         1 SU3      -0.0433
     44 CBT        -9.5982   -8.6088    7.7263 C.3         1 SU3      -0.0507
     45 CBU        -9.7978   -7.6909    8.9719 C.3         1 SU3      -0.0453
     46 CBV        -9.6789   -6.1357    8.7572 C.3         1 SU3      -0.0072
     47 CBW        -9.8485   -5.4195   10.1451 C.3         1 SU3       0.0824
     48 CBX        -8.2696   -5.7499    8.1914 C.3         1 SU3      -0.0574
     49 CBY       -10.7761   -5.6088    7.7751 C.3         1 SU3      -0.0574
     50 CBZ       -14.8353   -5.4589   15.5154 C.3         1 SU3      -0.0558
     51 CCA       -12.5338   -4.5121   15.0829 C.3         1 SU3      -0.0558
     52 CD1       -13.3060   -9.2939   13.6692 C.3         1 SU3       0.0677
     53 OD2       -12.5514  -11.3800   12.6903 O.3         1 SU3      -0.2338
     54 H1        -16.1807   -9.1858   12.1994 H           1 SU3       0.0803
     55 H2        -14.7853  -10.9200   11.7073 H           1 SU3       0.0342
     56 H3        -15.5254  -11.7115   13.1054 H           1 SU3       0.0342
     57 H4        -13.6386  -11.2910   14.4751 H           1 SU3       0.0673
     58 H5        -12.7242   -6.8423   14.0669 H           1 SU3       0.0805
     59 H6        -13.4451   -5.4855   11.5823 H           1 SU3       0.1899
     60 H7        -19.2306  -12.7642   17.7886 H           1 SU3       0.0265
     61 H8        -20.4754  -12.1899   16.6650 H           1 SU3       0.0265
     62 H9        -20.1909  -14.6634   16.5500 H           1 SU3       0.0230
     63 H10       -18.4810  -14.4645   16.0980 H           1 SU3       0.0230
     64 H11       -19.7703  -13.9139   14.9935 H           1 SU3       0.0230
     65 H12       -14.6415   -2.9996   14.2339 H           1 SU3       0.0237
     66 H13       -15.4027   -4.1291   13.1208 H           1 SU3       0.0237
     67 H14       -13.7753   -3.5224   12.7897 H           1 SU3       0.0237
     68 H15       -17.6415  -10.9763   13.4198 H           1 SU3       0.1839
     69 H16       -17.3680  -12.0275   16.1752 H           1 SU3       0.0312
     70 H17       -19.4162   -9.9596   17.1878 H           1 SU3       0.0279
     71 H18       -17.5679   -9.7648   16.9476 H           1 SU3       0.0279
     72 H19       -11.3560  -15.0920   11.3767 H           1 SU3       0.0373
     73 H20       -10.6628  -11.0374   10.9305 H           1 SU3       0.0361
     74 H21        -9.3549  -16.0180    9.5690 H           1 SU3       0.0557
     75 H22        -7.6282  -15.2467    8.0286 H           1 SU3       0.0599
     76 H23        -7.2573  -12.8873    7.6873 H           1 SU3       0.0557
     77 H24        -7.6320  -10.5823    8.2591 H           1 SU3       0.0426
     78 H25        -8.4460  -10.2631    9.7821 H           1 SU3       0.0426
     79 H26       -20.4763   -8.7924   15.4783 H           1 SU3       0.2148
     80 H27       -22.9310   -8.9044   16.8758 H           1 SU3       0.0559
     81 H28       -25.2211   -8.4691   14.7946 H           1 SU3       0.0285
     82 H29       -25.2004   -8.0103   16.6216 H           1 SU3       0.0285
     83 H30       -24.9000  -10.3839   17.1994 H           1 SU3       0.0285
     84 H31       -24.9166  -10.8270   15.3692 H           1 SU3       0.0285
     85 H32       -10.6824  -10.3027    8.5278 H           1 SU3       0.0287
     86 H33        -9.7940  -10.6472    7.0485 H           1 SU3       0.0287
     87 H34       -10.3522   -8.3496    6.9801 H           1 SU3       0.0267
     88 H35        -8.6188   -8.4332    7.2785 H           1 SU3       0.0267
     89 H36        -9.0665   -7.9840    9.7258 H           1 SU3       0.0271
     90 H37       -10.7847   -7.9097    9.3876 H           1 SU3       0.0271
     91 H38        -9.1037   -5.7994   10.8512 H           1 SU3       0.0617
     92 H39        -9.6570   -4.3500   10.0332 H           1 SU3       0.0617
     93 H40        -8.1193   -6.1541    7.1900 H           1 SU3       0.0236
     94 H41        -7.4765   -6.1288    8.8383 H           1 SU3       0.0236
     95 H42        -8.1597   -4.6657    8.1233 H           1 SU3       0.0236
     96 H43       -11.7712   -5.9153    8.1042 H           1 SU3       0.0236
     97 H44       -10.6186   -5.9921    6.7665 H           1 SU3       0.0236
     98 H45       -10.7555   -4.5178    7.7213 H           1 SU3       0.0236
     99 H46       -14.4612   -6.3202   16.0711 H           1 SU3       0.0237
    100 H47       -15.8078   -5.7197   15.0952 H           1 SU3       0.0237
    101 H48       -14.9907   -4.6400   16.2226 H           1 SU3       0.0237
    102 H49       -11.7948   -4.1973   14.3428 H           1 SU3       0.0237
    103 H50       -12.0771   -5.2827   15.7080 H           1 SU3       0.0237
    104 H51       -12.7512   -3.6523   15.7232 H           1 SU3       0.0237
    105 H52       -13.0338   -9.0860   14.7061 H           1 SU3       0.0553
    106 H53       -12.4850   -8.9868   13.0165 H           1 SU3       0.0553
@<TRIPOS>BOND
     1     1     3   2
     2     1     4   1
     3    21     1  am
     4     4     2   1
     5     2     7  am
     6     2    52   1
     7     4     5   1
     8     5     6   1
     9     6    52   1
    10     6    53   1
    11     7     8   2
    12     7     9   1
    13     9    10   1
    14     9    13   1
    15    10    11  am
    16    11    12   1
    17    11    14   2
    18    12    47   1
    19    13    20   1
    20    13    50   1
    21    13    51   1
    22    15    16   2
    23    15    17  am
    24    53    15   1
    25    17    26   1
    26    17    29   1
    27    18    19   1
    28    24    18   1
    29    22    21   1
    30    22    23   1
    31    22    24   1
    32    22    25   1
    33    23    35  am
    34    23    36   2
    35    24    25   1
    36    26    27   2
    37    27    28  ar
    38    27    30  ar
    39    28    29   2
    40    28    33  ar
    41    30    31  ar
    42    31    32  ar
    43    32    33  ar
    44    33    34   1
    45    34    43   1
    46    35    37  am
    47    37    38   1
    48    37    39   2
    49    37    40   2
    50    38    41   1
    51    38    42   1
    52    41    42   1
    53    43    44   1
    54    44    45   1
    55    45    46   1
    56    46    47   1
    57    46    48   1
    58    46    49   1
    59     4    54   1
    60     5    55   1
    61     5    56   1
    62     6    57   1
    63     9    58   1
    64    10    59   1
    65    18    60   1
    66    18    61   1
    67    19    62   1
    68    19    63   1
    69    19    64   1
    70    20    65   1
    71    20    66   1
    72    20    67   1
    73    21    68   1
    74    24    69   1
    75    25    70   1
    76    25    71   1
    77    26    72   1
    78    29    73   1
    79    30    74   1
    80    31    75   1
    81    32    76   1
    82    34    77   1
    83    34    78   1
    84    35    79   1
    85    38    80   1
    86    41    81   1
    87    41    82   1
    88    42    83   1
    89    42    84   1
    90    43    85   1
    91    43    86   1
    92    44    87   1
    93    44    88   1
    94    45    89   1
    95    45    90   1
    96    47    91   1
    97    47    92   1
    98    48    93   1
    99    48    94   1
   100    48    95   1
   101    49    96   1
   102    49    97   1
   103    49    98   1
   104    50    99   1
   105    50   100   1
   106    50   101   1
   107    51   102   1
   108    51   103   1
   109    51   104   1
   110    52   105   1
   111    52   106   1
@<TRIPOS>SUBSTRUCTURE
     1  SU3      1

