@<TRIPOS>MOLECULE
3su5_ligand_067
   106   111
SMALL
GAST_HUCK
****
This file was generated by PARSER (from files_GN.cpp)

@<TRIPOS>ATOM
      1 C         -13.9101   -6.3100   12.7036 C.2         1 SU3       0.2013
      2 N         -14.2686   -7.7743   10.8036 N.am        1 SU3      -0.2469
      3 O         -14.0654   -5.1749   13.1404 O.2         1 SU3      -0.3947
      4 CA        -14.8663   -6.8370   11.7288 C.3         1 SU3       0.1363
      5 CB        -16.0302   -7.5889   12.4327 C.3         1 SU3       0.0206
      6 CG        -16.1219   -8.9671   11.7533 C.3         1 SU3       0.1158
      7 CAF       -13.2878   -7.4424    9.9398 C.2         1 SU3       0.2070
      8 OAG       -13.0126   -6.2523    9.8185 O.2         1 SU3      -0.3942
      9 CAH       -12.5347   -8.3722    9.0822 C.3         1 SU3       0.1378
     10 NAI       -12.8860   -8.0715    7.7248 N.am        1 SU3      -0.2407
     11 CAJ       -13.4515   -8.9158    6.8387 C.2         1 SU3       0.3218
     12 OAK       -13.6446   -8.4435    5.5840 O.3         1 SU3      -0.2633
     13 CAL       -10.9634   -8.3938    9.2833 C.3         1 SU3       0.0025
     14 OAM       -13.7711  -10.1923    7.1566 O.2         1 SU3      -0.3774
     15 CAO       -18.5762   -9.1372   11.2166 C.2         1 SU3       0.4317
     16 OAP       -18.9436   -9.0909   12.5217 O.2         1 SU3      -0.3166
     17 NAQ       -19.5067   -9.2726   10.2388 N.am        1 SU3      -0.2080
     18 CAR       -12.2364   -5.8883   16.8815 C.3         1 SU3      -0.0516
     19 CAS       -11.7553   -4.4454   16.5989 C.3         1 SU3      -0.0651
     20 CAT       -10.3297   -9.5009    8.3693 C.3         1 SU3      -0.0558
     21 NAV       -12.9551   -7.1031   13.1691 N.am        1 SU3      -0.2737
     22 CAX       -12.0972   -6.8564   14.2820 C.3         1 SU3       0.1374
     23 CAY       -10.8453   -6.1555   14.0669 C.2         1 SU3       0.2444
     24 CAZ       -12.8218   -6.6079   15.6355 C.3         1 SU3      -0.0066
     25 CBA       -12.1983   -7.9866   15.3376 C.3         1 SU3      -0.0152
     26 CBB       -20.8426   -9.3838   10.4148 C.2         1 SU3       0.0383
     27 CBC       -21.4439   -9.5438    9.1727 C.ar        1 SU3      -0.0374
     28 CBD       -20.4337   -9.5113    8.2132 C.ar        1 SU3      -0.0293
     29 CBE       -19.2440   -9.3427    8.9121 C.2         1 SU3       0.0366
     30 CBF       -22.7871   -9.7280    8.8119 C.ar        1 SU3      -0.0689
     31 CBG       -23.0970   -9.8869    7.4469 C.ar        1 SU3      -0.0688
     32 CBH       -22.0757   -9.8518    6.4705 C.ar        1 SU3      -0.0606
     33 CBI       -20.7176   -9.6557    6.8345 C.ar        1 SU3      -0.0432
     34 CBJ       -19.6402   -9.6112    5.8086 C.3         1 SU3      -0.0194
     35 NBK        -9.6963   -6.8074   14.0679 N.am        1 SU3      -0.1552
     36 OBL       -10.8986   -4.9581   13.8205 O.2         1 SU3      -0.3404
     37 SBM        -8.1731   -6.0749   14.0533 S.o2        1 SU3       0.0645
     38 CBN        -7.6368   -5.2375   12.5434 C.3         1 SU3       0.1004
     39 OBO        -8.1174   -5.0666   15.2801 O.2         1 SU3      -0.1503
     40 OBP        -7.1232   -7.2013   14.4468 O.2         1 SU3      -0.1503
     41 CBQ        -6.6135   -5.9087   11.6112 C.3         1 SU3      -0.0268
     42 CBR        -8.0926   -5.8604   11.2120 C.3         1 SU3      -0.0268
     43 CBS       -19.1148   -8.1675    5.5714 C.3         1 SU3      -0.0433
     44 CBT       -18.0115   -8.0509    4.4807 C.3         1 SU3      -0.0507
     45 CBU       -16.6146   -8.6010    4.9008 C.3         1 SU3      -0.0453
     46 CBV       -15.4451   -8.4752    3.8510 C.3         1 SU3      -0.0072
     47 CBW       -14.1535   -9.1416    4.4398 C.3         1 SU3       0.0824
     48 CBX       -15.7930   -9.2353    2.5286 C.3         1 SU3      -0.0574
     49 CBY       -15.1354   -6.9775    3.5181 C.3         1 SU3      -0.0574
     50 CBZ       -10.2644   -7.0368    8.9326 C.3         1 SU3      -0.0558
     51 CCA       -10.6239   -8.7672   10.7658 C.3         1 SU3      -0.0558
     52 CD1       -14.8236   -9.0899   10.9331 C.3         1 SU3       0.0677
     53 OD2       -17.2570   -9.0784   10.8828 O.3         1 SU3      -0.2338
     54 H1        -15.3052   -6.0153   11.1471 H           1 SU3       0.0803
     55 H2        -16.9655   -7.0313   12.3238 H           1 SU3       0.0342
     56 H3        -15.8600   -7.7316   13.5052 H           1 SU3       0.0342
     57 H4        -16.1702   -9.7725   12.4935 H           1 SU3       0.0673
     58 H5        -12.8521   -9.3875    9.3121 H           1 SU3       0.0805
     59 H6        -12.6802   -7.1800    7.4053 H           1 SU3       0.1899
     60 H7        -13.0382   -5.8360   17.6308 H           1 SU3       0.0265
     61 H8        -11.4140   -6.4542   17.3308 H           1 SU3       0.0265
     62 H9        -11.5161   -3.9568   17.5479 H           1 SU3       0.0230
     63 H10       -12.5280   -3.8712   16.0778 H           1 SU3       0.0230
     64 H11       -10.8430   -4.4699   15.9905 H           1 SU3       0.0230
     65 H12        -9.2554   -9.5988    8.5521 H           1 SU3       0.0237
     66 H13       -10.4645   -9.2623    7.3122 H           1 SU3       0.0237
     67 H14       -10.7898  -10.4744    8.5575 H           1 SU3       0.0237
     68 H15       -12.8920   -7.9834   12.7718 H           1 SU3       0.1839
     69 H16       -13.9119   -6.6081   15.5630 H           1 SU3       0.0312
     70 H17       -11.2777   -8.2450   15.8655 H           1 SU3       0.0279
     71 H18       -12.9308   -8.7795   15.1664 H           1 SU3       0.0279
     72 H19       -21.3409   -9.3747   11.3082 H           1 SU3       0.0373
     73 H20       -18.3150   -9.2959    8.4858 H           1 SU3       0.0361
     74 H21       -23.5207   -9.7567    9.5220 H           1 SU3       0.0557
     75 H22       -24.0701  -10.0299    7.1614 H           1 SU3       0.0599
     76 H23       -22.3344   -9.9662    5.4868 H           1 SU3       0.0557
     77 H24       -20.0082  -10.0034    4.8573 H           1 SU3       0.0426
     78 H25       -18.8267  -10.2639    6.1278 H           1 SU3       0.0426
     79 H26        -9.7183   -7.7673   14.1856 H           1 SU3       0.2148
     80 H27        -7.6042   -4.1479   12.5437 H           1 SU3       0.0559
     81 H28        -6.2519   -6.9043   11.8719 H           1 SU3       0.0285
     82 H29        -5.9774   -5.2518   11.0189 H           1 SU3       0.0285
     83 H30        -8.3637   -5.1466   10.4325 H           1 SU3       0.0285
     84 H31        -8.6015   -6.8207   11.2632 H           1 SU3       0.0285
     85 H32       -18.7343   -7.7430    6.5043 H           1 SU3       0.0287
     86 H33       -19.9619   -7.5486    5.2559 H           1 SU3       0.0287
     87 H34       -17.9110   -6.9910    4.2357 H           1 SU3       0.0267
     88 H35       -18.3624   -8.5656    3.5839 H           1 SU3       0.0267
     89 H36       -16.7327   -9.6558    5.1552 H           1 SU3       0.0271
     90 H37       -16.3190   -8.0836    5.8175 H           1 SU3       0.0271
     91 H38       -14.3534  -10.1906    4.6780 H           1 SU3       0.0617
     92 H39       -13.3531   -9.1316    3.6955 H           1 SU3       0.0617
     93 H40       -16.6268   -8.7645    2.0062 H           1 SU3       0.0236
     94 H41       -16.0614  -10.2735    2.7424 H           1 SU3       0.0236
     95 H42       -14.9387   -9.2392    1.8457 H           1 SU3       0.0236
     96 H43       -14.9649   -6.4039    4.4323 H           1 SU3       0.0236
     97 H44       -15.9616   -6.5143    2.9758 H           1 SU3       0.0236
     98 H45       -14.2422   -6.8959    2.8936 H           1 SU3       0.0236
     99 H46       -10.5459   -6.2513    9.6312 H           1 SU3       0.0237
    100 H47       -10.5298   -6.7066    7.9257 H           1 SU3       0.0237
    101 H48        -9.1768   -7.1325    8.9756 H           1 SU3       0.0237
    102 H49       -11.0521   -9.7368   11.0298 H           1 SU3       0.0237
    103 H50       -11.0244   -8.0232   11.4560 H           1 SU3       0.0237
    104 H51        -9.5440   -8.8251   10.9218 H           1 SU3       0.0237
    105 H52       -14.1060   -9.7323   11.4505 H           1 SU3       0.0553
    106 H53       -15.0515   -9.5291    9.9569 H           1 SU3       0.0553
@<TRIPOS>BOND
     1     1     3   2
     2     1     4   1
     3    21     1  am
     4     4     2   1
     5     2     7  am
     6     2    52   1
     7     4     5   1
     8     5     6   1
     9     6    52   1
    10     6    53   1
    11     7     8   2
    12     7     9   1
    13     9    10   1
    14     9    13   1
    15    10    11  am
    16    11    12   1
    17    11    14   2
    18    12    47   1
    19    13    20   1
    20    13    50   1
    21    13    51   1
    22    15    16   2
    23    15    17  am
    24    53    15   1
    25    17    26   1
    26    17    29   1
    27    18    19   1
    28    24    18   1
    29    22    21   1
    30    22    23   1
    31    22    24   1
    32    22    25   1
    33    23    35  am
    34    23    36   2
    35    24    25   1
    36    26    27   2
    37    27    28  ar
    38    27    30  ar
    39    28    29   2
    40    28    33  ar
    41    30    31  ar
    42    31    32  ar
    43    32    33  ar
    44    33    34   1
    45    34    43   1
    46    35    37  am
    47    37    38   1
    48    37    39   2
    49    37    40   2
    50    38    41   1
    51    38    42   1
    52    41    42   1
    53    43    44   1
    54    44    45   1
    55    45    46   1
    56    46    47   1
    57    46    48   1
    58    46    49   1
    59     4    54   1
    60     5    55   1
    61     5    56   1
    62     6    57   1
    63     9    58   1
    64    10    59   1
    65    18    60   1
    66    18    61   1
    67    19    62   1
    68    19    63   1
    69    19    64   1
    70    20    65   1
    71    20    66   1
    72    20    67   1
    73    21    68   1
    74    24    69   1
    75    25    70   1
    76    25    71   1
    77    26    72   1
    78    29    73   1
    79    30    74   1
    80    31    75   1
    81    32    76   1
    82    34    77   1
    83    34    78   1
    84    35    79   1
    85    38    80   1
    86    41    81   1
    87    41    82   1
    88    42    83   1
    89    42    84   1
    90    43    85   1
    91    43    86   1
    92    44    87   1
    93    44    88   1
    94    45    89   1
    95    45    90   1
    96    47    91   1
    97    47    92   1
    98    48    93   1
    99    48    94   1
   100    48    95   1
   101    49    96   1
   102    49    97   1
   103    49    98   1
   104    50    99   1
   105    50   100   1
   106    50   101   1
   107    51   102   1
   108    51   103   1
   109    51   104   1
   110    52   105   1
   111    52   106   1
@<TRIPOS>SUBSTRUCTURE
     1  SU3      1

