@<TRIPOS>MOLECULE
3su5_ligand_060
   106   111
SMALL
GAST_HUCK
****
This file was generated by PARSER (from files_GN.cpp)

@<TRIPOS>ATOM
      1 C          -6.3528   -2.3905    9.8934 C.2         1 SU3       0.2013
      2 N          -4.9162   -0.6064    9.1112 N.am        1 SU3      -0.2469
      3 O          -6.7715   -2.4637    8.7482 O.2         1 SU3      -0.3947
      4 CA         -5.5010   -1.2564   10.2673 C.3         1 SU3       0.1363
      5 CB         -6.2925   -0.1292   10.9665 C.3         1 SU3       0.0206
      6 CG         -6.6859    0.8284    9.8290 C.3         1 SU3       0.1158
      7 CAF        -3.8427   -1.0867    8.4573 C.2         1 SU3       0.2070
      8 OAG        -3.1678   -1.9260    9.0399 O.2         1 SU3      -0.3942
      9 CAH        -3.3024   -0.5812    7.1832 C.3         1 SU3       0.1378
     10 NAI        -2.2040    0.2973    7.4960 N.am        1 SU3      -0.2407
     11 CAJ        -2.1091    1.6059    7.1501 C.2         1 SU3       0.3218
     12 OAK        -0.9510    2.2579    7.4339 O.3         1 SU3      -0.2633
     13 CAL        -2.9258   -1.6720    6.0875 C.3         1 SU3       0.0025
     14 OAM        -3.0912    2.2423    6.4676 O.2         1 SU3      -0.3774
     15 CAO        -7.4290    2.9031   11.0749 C.2         1 SU3       0.4317
     16 OAP        -8.5073    2.3138   11.6443 O.2         1 SU3      -0.3166
     17 NAQ        -7.0797    4.1787   11.3663 N.am        1 SU3      -0.2080
     18 CAR        -9.2628   -6.1011    9.5296 C.3         1 SU3      -0.0516
     19 CAS        -9.7135   -6.6207    8.1476 C.3         1 SU3      -0.0651
     20 CAT        -4.2211   -2.4198    5.6254 C.3         1 SU3      -0.0558
     21 NAV        -6.6143   -3.3315   10.7972 N.am        1 SU3      -0.2737
     22 CAX        -7.3408   -4.5769   10.6848 C.3         1 SU3       0.1374
     23 CAY        -7.5243   -5.2355   11.9745 C.2         1 SU3       0.2444
     24 CAZ        -8.1129   -5.0714    9.4211 C.3         1 SU3      -0.0066
     25 CBA        -6.6720   -5.5347    9.6641 C.3         1 SU3      -0.0152
     26 CBB        -7.7291    5.0320   12.1907 C.2         1 SU3       0.0383
     27 CBC        -7.0055    6.2159   12.2671 C.ar        1 SU3      -0.0374
     28 CBD        -5.8757    6.0668   11.4645 C.ar        1 SU3      -0.0293
     29 CBE        -5.9688    4.7992   10.9038 C.2         1 SU3       0.0366
     30 CBF        -7.2321    7.4045   12.9813 C.ar        1 SU3      -0.0689
     31 CBG        -6.2907    8.4473   12.8674 C.ar        1 SU3      -0.0688
     32 CBH        -5.1377    8.2886   12.0641 C.ar        1 SU3      -0.0606
     33 CBI        -4.8991    7.0845   11.3523 C.ar        1 SU3      -0.0432
     34 CBJ        -3.6651    6.8907   10.5404 C.3         1 SU3      -0.0194
     35 NBK        -8.7293   -5.3085   12.5198 N.am        1 SU3      -0.1552
     36 OBL        -6.5360   -5.6776   12.5498 O.2         1 SU3      -0.3404
     37 SBM        -9.1097   -6.0928   13.9677 S.o2        1 SU3       0.0645
     38 CBN       -10.7223   -6.9128   14.0028 C.3         1 SU3       0.1004
     39 OBO        -8.0810   -7.2669   14.2678 O.2         1 SU3      -0.1503
     40 OBP        -9.0365   -5.0848   15.1946 O.2         1 SU3      -0.1503
     41 CBQ       -11.8695   -6.3467   13.1547 C.3         1 SU3      -0.0268
     42 CBR       -11.1778   -7.6485   12.7320 C.3         1 SU3      -0.0268
     43 CBS        -2.6630    5.9076   11.2130 C.3         1 SU3      -0.0433
     44 CBT        -1.3459    5.6748   10.4213 C.3         1 SU3      -0.0507
     45 CBU        -1.4925    4.7798    9.1516 C.3         1 SU3      -0.0453
     46 CBV        -0.1894    4.4909    8.3127 C.3         1 SU3      -0.0072
     47 CBW        -0.5613    3.5968    7.0774 C.3         1 SU3       0.0824
     48 CBX         0.4250    5.8258    7.7725 C.3         1 SU3      -0.0574
     49 CBY         0.8905    3.7465    9.1636 C.3         1 SU3      -0.0574
     50 CBZ        -2.3125   -0.9602    4.8315 C.3         1 SU3      -0.0558
     51 CCA        -1.8861   -2.7448    6.5653 C.3         1 SU3      -0.0558
     52 CD1        -5.6135    0.5889    8.7457 C.3         1 SU3       0.0677
     53 OD2        -6.6377    2.1985   10.2272 O.3         1 SU3      -0.2338
     54 H1         -4.7159   -1.6042   10.9583 H           1 SU3       0.0803
     55 H2         -5.6283    0.3852   11.6694 H           1 SU3       0.0342
     56 H3         -7.1694   -0.4852   11.5159 H           1 SU3       0.0342
     57 H4         -7.6756    0.5737    9.4361 H           1 SU3       0.0673
     58 H5         -4.0821    0.0165    6.7075 H           1 SU3       0.0805
     59 H6         -1.4399   -0.0917    7.9498 H           1 SU3       0.1899
     60 H7         -8.9639   -6.9608   10.1410 H           1 SU3       0.0265
     61 H8        -10.1119   -5.6016   10.0045 H           1 SU3       0.0265
     62 H9        -10.5132   -7.3515    8.2807 H           1 SU3       0.0230
     63 H10        -8.8768   -7.1013    7.6344 H           1 SU3       0.0230
     64 H11       -10.0889   -5.8009    7.5286 H           1 SU3       0.0230
     65 H12        -3.9972   -3.1426    4.8377 H           1 SU3       0.0237
     66 H13        -4.9593   -1.7161    5.2331 H           1 SU3       0.0237
     67 H14        -4.6769   -2.9589    6.4575 H           1 SU3       0.0237
     68 H15        -6.2186   -3.1776   11.6717 H           1 SU3       0.1839
     69 H16        -8.2134   -4.3664    8.6024 H           1 SU3       0.0312
     70 H17        -6.5535   -6.5826    9.9501 H           1 SU3       0.0279
     71 H18        -5.9295   -5.1107    8.9852 H           1 SU3       0.0279
     72 H19        -8.5970    4.8413   12.6981 H           1 SU3       0.0373
     73 H20        -5.2811    4.3951   10.2641 H           1 SU3       0.0361
     74 H21        -8.0621    7.5108   13.5694 H           1 SU3       0.0557
     75 H22        -6.4391    9.3213   13.3757 H           1 SU3       0.0599
     76 H23        -4.4663    9.0575   12.0134 H           1 SU3       0.0557
     77 H24        -3.1576    7.8476   10.3918 H           1 SU3       0.0426
     78 H25        -3.9512    6.5258    9.5520 H           1 SU3       0.0426
     79 H26        -9.4625   -4.8977   12.0383 H           1 SU3       0.2148
     80 H27       -11.0243   -7.4070   14.9299 H           1 SU3       0.0559
     81 H28       -11.6471   -5.4759   12.5377 H           1 SU3       0.0285
     82 H29       -12.8727   -6.4659   13.5665 H           1 SU3       0.0285
     83 H30       -11.7552   -8.5632   12.8890 H           1 SU3       0.0285
     84 H31       -10.5357   -7.5715   11.8552 H           1 SU3       0.0285
     85 H32        -3.1380    4.9406   11.3907 H           1 SU3       0.0287
     86 H33        -2.3971    6.3202   12.1910 H           1 SU3       0.0287
     87 H34        -0.6403    5.1948   11.1030 H           1 SU3       0.0267
     88 H35        -0.9330    6.6481   10.1504 H           1 SU3       0.0267
     89 H36        -2.2242    5.2526    8.4919 H           1 SU3       0.0271
     90 H37        -1.9215    3.8247    9.4681 H           1 SU3       0.0271
     91 H38        -1.3402    4.0875    6.4877 H           1 SU3       0.0617
     92 H39         0.3081    3.4911    6.4239 H           1 SU3       0.0617
     93 H40         0.7996    6.4490    8.5860 H           1 SU3       0.0236
     94 H41        -0.3217    6.3991    7.2183 H           1 SU3       0.0236
     95 H42         1.2655    5.6269    7.1033 H           1 SU3       0.0236
     96 H43         0.4716    2.8475    9.6210 H           1 SU3       0.0236
     97 H44         1.2773    4.3840    9.9604 H           1 SU3       0.0236
     98 H45         1.7362    3.4489    8.5390 H           1 SU3       0.0236
     99 H46        -1.3534   -0.4963    5.0757 H           1 SU3       0.0237
    100 H47        -2.9818   -0.1819    4.4597 H           1 SU3       0.0237
    101 H48        -2.1364   -1.6697    4.0195 H           1 SU3       0.0237
    102 H49        -2.3175   -3.4260    7.3015 H           1 SU3       0.0237
    103 H50        -1.0157   -2.2602    7.0102 H           1 SU3       0.0237
    104 H51        -1.5439   -3.3631    5.7308 H           1 SU3       0.0237
    105 H52        -6.0883    0.4868    7.7643 H           1 SU3       0.0553
    106 H53        -4.8976    1.4166    8.7174 H           1 SU3       0.0553
@<TRIPOS>BOND
     1     1     3   2
     2     1     4   1
     3    21     1  am
     4     4     2   1
     5     2     7  am
     6     2    52   1
     7     4     5   1
     8     5     6   1
     9     6    52   1
    10     6    53   1
    11     7     8   2
    12     7     9   1
    13     9    10   1
    14     9    13   1
    15    10    11  am
    16    11    12   1
    17    11    14   2
    18    12    47   1
    19    13    20   1
    20    13    50   1
    21    13    51   1
    22    15    16   2
    23    15    17  am
    24    53    15   1
    25    17    26   1
    26    17    29   1
    27    18    19   1
    28    24    18   1
    29    22    21   1
    30    22    23   1
    31    22    24   1
    32    22    25   1
    33    23    35  am
    34    23    36   2
    35    24    25   1
    36    26    27   2
    37    27    28  ar
    38    27    30  ar
    39    28    29   2
    40    28    33  ar
    41    30    31  ar
    42    31    32  ar
    43    32    33  ar
    44    33    34   1
    45    34    43   1
    46    35    37  am
    47    37    38   1
    48    37    39   2
    49    37    40   2
    50    38    41   1
    51    38    42   1
    52    41    42   1
    53    43    44   1
    54    44    45   1
    55    45    46   1
    56    46    47   1
    57    46    48   1
    58    46    49   1
    59     4    54   1
    60     5    55   1
    61     5    56   1
    62     6    57   1
    63     9    58   1
    64    10    59   1
    65    18    60   1
    66    18    61   1
    67    19    62   1
    68    19    63   1
    69    19    64   1
    70    20    65   1
    71    20    66   1
    72    20    67   1
    73    21    68   1
    74    24    69   1
    75    25    70   1
    76    25    71   1
    77    26    72   1
    78    29    73   1
    79    30    74   1
    80    31    75   1
    81    32    76   1
    82    34    77   1
    83    34    78   1
    84    35    79   1
    85    38    80   1
    86    41    81   1
    87    41    82   1
    88    42    83   1
    89    42    84   1
    90    43    85   1
    91    43    86   1
    92    44    87   1
    93    44    88   1
    94    45    89   1
    95    45    90   1
    96    47    91   1
    97    47    92   1
    98    48    93   1
    99    48    94   1
   100    48    95   1
   101    49    96   1
   102    49    97   1
   103    49    98   1
   104    50    99   1
   105    50   100   1
   106    50   101   1
   107    51   102   1
   108    51   103   1
   109    51   104   1
   110    52   105   1
   111    52   106   1
@<TRIPOS>SUBSTRUCTURE
     1  SU3      1

