@<TRIPOS>MOLECULE
3su5_ligand_080
   106   111
SMALL
GAST_HUCK
****
This file was generated by PARSER (from files_GN.cpp)

@<TRIPOS>ATOM
      1 C         -16.5139   -7.5171   13.3895 C.2         1 SU3       0.2013
      2 N         -18.0417   -7.1370   11.5220 N.am        1 SU3      -0.2469
      3 O         -16.2750   -7.5244   14.5928 O.2         1 SU3      -0.3947
      4 CA        -17.8627   -7.1597   12.9578 C.3         1 SU3       0.1363
      5 CB        -18.9485   -8.1385   13.4671 C.3         1 SU3       0.0206
      6 CG        -19.2509   -9.0670   12.2805 C.3         1 SU3       0.1158
      7 CAF       -17.6043   -6.1418   10.7269 C.2         1 SU3       0.2070
      8 OAG       -17.1263   -5.1460   11.2711 O.2         1 SU3      -0.3942
      9 CAH       -17.7048   -6.0927    9.2586 C.3         1 SU3       0.1378
     10 NAI       -18.8023   -5.2165    8.9434 N.am        1 SU3      -0.2407
     11 CAJ       -19.8843   -5.5152    8.1956 C.2         1 SU3       0.3218
     12 OAK       -20.7652   -4.5080    7.9488 O.3         1 SU3      -0.2633
     13 CAL       -16.3913   -5.7035    8.4544 C.3         1 SU3       0.0025
     14 OAM       -20.0687   -6.7416    7.6460 O.2         1 SU3      -0.3774
     15 CAO       -21.4856  -10.1175   12.8941 C.2         1 SU3       0.4317
     16 OAP       -20.9889  -10.8564   13.9150 O.2         1 SU3      -0.3166
     17 NAQ       -22.8144  -10.1011   12.6092 N.am        1 SU3      -0.2080
     18 CAR       -12.9794  -10.5083   13.5620 C.3         1 SU3      -0.0516
     19 CAS       -13.5431  -10.7620   14.9758 C.3         1 SU3      -0.0651
     20 CAT       -15.9514   -4.2123    8.6451 C.3         1 SU3      -0.0558
     21 NAV       -15.5320   -7.7797   12.5232 N.am        1 SU3      -0.2737
     22 CAX       -14.1785   -8.1236   12.8644 C.3         1 SU3       0.1374
     23 CAY       -13.3869   -7.1142   13.5808 C.2         1 SU3       0.2444
     24 CAZ       -13.9526   -9.6529   12.7130 C.3         1 SU3      -0.0066
     25 CBA       -13.3906   -8.6949   11.6534 C.3         1 SU3      -0.0152
     26 CBB       -23.7870  -10.8054   13.2295 C.2         1 SU3       0.0383
     27 CBC       -25.0158  -10.4482   12.6796 C.ar        1 SU3      -0.0374
     28 CBD       -24.7699   -9.4904   11.6984 C.ar        1 SU3      -0.0293
     29 CBE       -23.3876   -9.3205   11.6669 C.2         1 SU3       0.0366
     30 CBF       -26.3262  -10.8671   12.9658 C.ar        1 SU3      -0.0689
     31 CBG       -27.3889  -10.2921   12.2406 C.ar        1 SU3      -0.0688
     32 CBH       -27.1395   -9.3104   11.2582 C.ar        1 SU3      -0.0606
     33 CBI       -25.8164   -8.8793   10.9721 C.ar        1 SU3      -0.0432
     34 CBJ       -25.5502   -7.8057    9.9744 C.3         1 SU3      -0.0194
     35 NBK       -12.1712   -7.3142   14.0670 N.am        1 SU3      -0.1552
     36 OBL       -13.9289   -6.0302   13.8123 O.2         1 SU3      -0.3404
     37 SBM       -11.3063   -6.2028   14.9988 S.o2        1 SU3       0.0645
     38 CBN       -11.9824   -5.8083   16.6338 C.3         1 SU3       0.1004
     39 OBO        -9.8567   -6.8225   15.2152 O.2         1 SU3      -0.1503
     40 OBP       -10.9905   -4.8760   14.1770 O.2         1 SU3      -0.1503
     41 CBQ       -13.2506   -6.5458   17.0859 C.3         1 SU3      -0.0268
     42 CBR       -11.9025   -6.8926   17.7260 C.3         1 SU3      -0.0268
     43 CBS       -25.1518   -6.4618   10.6501 C.3         1 SU3      -0.0433
     44 CBT       -24.9052   -5.2845    9.6653 C.3         1 SU3      -0.0507
     45 CBU       -23.5907   -5.3863    8.8352 C.3         1 SU3      -0.0453
     46 CBV       -23.2578   -4.1895    7.8635 C.3         1 SU3      -0.0072
     47 CBW       -21.9257   -4.5103    7.0998 C.3         1 SU3       0.0824
     48 CBX       -24.3885   -4.0131    6.7964 C.3         1 SU3      -0.0574
     49 CBY       -23.0852   -2.8453    8.6444 C.3         1 SU3      -0.0574
     50 CBZ       -15.2036   -6.6287    8.8810 C.3         1 SU3      -0.0558
     51 CCA       -16.6356   -5.9256    6.9215 C.3         1 SU3      -0.0558
     52 CD1       -18.7839   -8.2681   11.0493 C.3         1 SU3       0.0677
     53 OD2       -20.6522   -9.3401   12.1542 O.3         1 SU3      -0.2338
     54 H1        -18.0897   -6.1710   13.3719 H           1 SU3       0.0803
     55 H2        -19.8475   -7.5723   13.7242 H           1 SU3       0.0342
     56 H3        -18.6483   -8.7106   14.3487 H           1 SU3       0.0342
     57 H4        -18.6887  -10.0012   12.3645 H           1 SU3       0.0673
     58 H5        -17.9515   -7.0972    8.9117 H           1 SU3       0.0805
     59 H6        -18.7372   -4.3046    9.2667 H           1 SU3       0.1899
     60 H7        -12.8519  -11.4709   13.0532 H           1 SU3       0.0265
     61 H8        -11.9965  -10.0530   13.6335 H           1 SU3       0.0265
     62 H9        -12.8482  -11.3986   15.5317 H           1 SU3       0.0230
     63 H10       -14.5129  -11.2680   14.9209 H           1 SU3       0.0230
     64 H11       -13.6635   -9.8180   15.5091 H           1 SU3       0.0230
     65 H12       -15.1006   -3.9730    8.0012 H           1 SU3       0.0237
     66 H13       -15.6425   -4.0084    9.6695 H           1 SU3       0.0237
     67 H14       -16.7628   -3.5283    8.3902 H           1 SU3       0.0237
     68 H15       -15.7585   -7.7832   11.5795 H           1 SU3       0.1839
     69 H16       -14.8281  -10.2030   12.3503 H           1 SU3       0.0312
     70 H17       -12.2955   -8.6224   11.6516 H           1 SU3       0.0279
     71 H18       -13.9012   -8.7539   10.6894 H           1 SU3       0.0279
     72 H19       -23.6594  -11.4771   13.9896 H           1 SU3       0.0373
     73 H20       -22.8985   -8.6765   11.0418 H           1 SU3       0.0361
     74 H21       -26.5044  -11.5693   13.6880 H           1 SU3       0.0557
     75 H22       -28.3503  -10.5804   12.4387 H           1 SU3       0.0599
     76 H23       -27.9324   -8.8968   10.7641 H           1 SU3       0.0557
     77 H24       -26.4383   -7.6311    9.3601 H           1 SU3       0.0426
     78 H25       -24.7595   -8.1425    9.3001 H           1 SU3       0.0426
     79 H26       -11.7302   -8.1589   13.8727 H           1 SU3       0.2148
     80 H27       -11.8627   -4.7922   17.0124 H           1 SU3       0.0559
     81 H28       -13.6486   -7.3299   16.4436 H           1 SU3       0.0285
     82 H29       -13.9328   -5.9796   17.7130 H           1 SU3       0.0285
     83 H30       -11.7672   -6.5344   18.7549 H           1 SU3       0.0285
     84 H31       -11.4666   -7.8506   17.4333 H           1 SU3       0.0285
     85 H32       -24.2587   -6.5954   11.2641 H           1 SU3       0.0287
     86 H33       -25.9646   -6.1686   11.3213 H           1 SU3       0.0287
     87 H34       -24.8653   -4.3713   10.2601 H           1 SU3       0.0267
     88 H35       -25.7659   -5.2097    8.9994 H           1 SU3       0.0267
     89 H36       -23.6393   -6.3040    8.2434 H           1 SU3       0.0271
     90 H37       -22.7612   -5.5050    9.5385 H           1 SU3       0.0271
     91 H38       -22.0199   -5.4640    6.5732 H           1 SU3       0.0617
     92 H39       -21.7415   -3.7471    6.3416 H           1 SU3       0.0617
     93 H40       -25.3260   -3.6981    7.2568 H           1 SU3       0.0236
     94 H41       -24.5670   -4.9485    6.2624 H           1 SU3       0.0236
     95 H42       -24.1164   -3.2500    6.0621 H           1 SU3       0.0236
     96 H43       -22.3687   -2.9585    9.4614 H           1 SU3       0.0236
     97 H44       -24.0319   -2.5084    9.0688 H           1 SU3       0.0236
     98 H45       -22.7227   -2.0569    7.9811 H           1 SU3       0.0236
     99 H46       -15.4787   -7.6814    8.7806 H           1 SU3       0.0237
    100 H47       -14.9210   -6.4476    9.9186 H           1 SU3       0.0237
    101 H48       -14.3213   -6.4480    8.2618 H           1 SU3       0.0237
    102 H49       -17.4286   -5.2704    6.5525 H           1 SU3       0.0237
    103 H50       -16.9272   -6.9583    6.7159 H           1 SU3       0.0237
    104 H51       -15.7346   -5.7132    6.3412 H           1 SU3       0.0237
    105 H52       -18.1587   -8.9001   10.4141 H           1 SU3       0.0553
    106 H53       -19.6451   -7.9229   10.4712 H           1 SU3       0.0553
@<TRIPOS>BOND
     1     1     3   2
     2     1     4   1
     3    21     1  am
     4     4     2   1
     5     2     7  am
     6     2    52   1
     7     4     5   1
     8     5     6   1
     9     6    52   1
    10     6    53   1
    11     7     8   2
    12     7     9   1
    13     9    10   1
    14     9    13   1
    15    10    11  am
    16    11    12   1
    17    11    14   2
    18    12    47   1
    19    13    20   1
    20    13    50   1
    21    13    51   1
    22    15    16   2
    23    15    17  am
    24    53    15   1
    25    17    26   1
    26    17    29   1
    27    18    19   1
    28    24    18   1
    29    22    21   1
    30    22    23   1
    31    22    24   1
    32    22    25   1
    33    23    35  am
    34    23    36   2
    35    24    25   1
    36    26    27   2
    37    27    28  ar
    38    27    30  ar
    39    28    29   2
    40    28    33  ar
    41    30    31  ar
    42    31    32  ar
    43    32    33  ar
    44    33    34   1
    45    34    43   1
    46    35    37  am
    47    37    38   1
    48    37    39   2
    49    37    40   2
    50    38    41   1
    51    38    42   1
    52    41    42   1
    53    43    44   1
    54    44    45   1
    55    45    46   1
    56    46    47   1
    57    46    48   1
    58    46    49   1
    59     4    54   1
    60     5    55   1
    61     5    56   1
    62     6    57   1
    63     9    58   1
    64    10    59   1
    65    18    60   1
    66    18    61   1
    67    19    62   1
    68    19    63   1
    69    19    64   1
    70    20    65   1
    71    20    66   1
    72    20    67   1
    73    21    68   1
    74    24    69   1
    75    25    70   1
    76    25    71   1
    77    26    72   1
    78    29    73   1
    79    30    74   1
    80    31    75   1
    81    32    76   1
    82    34    77   1
    83    34    78   1
    84    35    79   1
    85    38    80   1
    86    41    81   1
    87    41    82   1
    88    42    83   1
    89    42    84   1
    90    43    85   1
    91    43    86   1
    92    44    87   1
    93    44    88   1
    94    45    89   1
    95    45    90   1
    96    47    91   1
    97    47    92   1
    98    48    93   1
    99    48    94   1
   100    48    95   1
   101    49    96   1
   102    49    97   1
   103    49    98   1
   104    50    99   1
   105    50   100   1
   106    50   101   1
   107    51   102   1
   108    51   103   1
   109    51   104   1
   110    52   105   1
   111    52   106   1
@<TRIPOS>SUBSTRUCTURE
     1  SU3      1

