@<TRIPOS>MOLECULE
3su5_ligand_052
   106   111
SMALL
GAST_HUCK
****
This file was generated by PARSER (from files_GN.cpp)

@<TRIPOS>ATOM
      1 C         -13.7590   -5.0621   12.0811 C.2         1 SU3       0.2013
      2 N         -12.8880   -4.4544    9.9181 N.am        1 SU3      -0.2469
      3 O         -14.5900   -5.8743   11.6934 O.2         1 SU3      -0.3947
      4 CA        -13.3863   -3.9668   11.1842 C.3         1 SU3       0.1363
      5 CB        -14.5813   -3.0364   10.8547 C.3         1 SU3       0.0206
      6 CG        -14.9227   -3.2899    9.3734 C.3         1 SU3       0.1158
      7 CAF       -11.6805   -5.0356    9.7624 C.2         1 SU3       0.2070
      8 OAG       -10.8703   -4.9229   10.6772 O.2         1 SU3      -0.3942
      9 CAH       -11.1904   -5.7167    8.5481 C.3         1 SU3       0.1378
     10 NAI       -10.1085   -4.9246    8.0217 N.am        1 SU3      -0.2407
     11 CAJ       -10.0431   -4.3860    6.7807 C.2         1 SU3       0.3218
     12 OAK        -8.9415   -3.6556    6.4746 O.3         1 SU3      -0.2633
     13 CAL       -10.7995   -7.2485    8.7262 C.3         1 SU3       0.0025
     14 OAM       -11.0178   -4.5803    5.8572 O.2         1 SU3      -0.3774
     15 CAO       -15.7027   -1.0042    8.6174 C.2         1 SU3       0.4317
     16 OAP       -16.7967   -1.0015    9.4156 O.2         1 SU3      -0.3166
     17 NAQ       -15.3957    0.0679    7.8460 N.am        1 SU3      -0.2080
     18 CAR       -12.0547   -7.1421   16.4260 C.3         1 SU3      -0.0516
     19 CAS       -11.9648   -6.7919   17.9276 C.3         1 SU3      -0.0651
     20 CAT        -9.8001   -7.5337    9.8999 C.3         1 SU3      -0.0558
     21 NAV       -13.2138   -5.1521   13.2883 N.am        1 SU3      -0.2737
     22 CAX       -13.4443   -6.1673   14.2842 C.3         1 SU3       0.1374
     23 CAY       -13.7116   -7.5377   13.8817 C.2         1 SU3       0.2444
     24 CAZ       -12.5797   -5.9621   15.5620 C.3         1 SU3      -0.0066
     25 CBA       -14.0837   -5.6673   15.5992 C.3         1 SU3      -0.0152
     26 CBB       -16.1050    1.2155    7.7422 C.2         1 SU3       0.0383
     27 CBC       -15.4420    2.0739    6.8710 C.ar        1 SU3      -0.0374
     28 CBD       -14.2860    1.4240    6.4448 C.ar        1 SU3      -0.0293
     29 CBE       -14.2982    0.1747    7.0610 C.2         1 SU3       0.0366
     30 CBF       -15.7542    3.3688    6.4253 C.ar        1 SU3      -0.0689
     31 CBG       -14.8685    4.0002    5.5308 C.ar        1 SU3      -0.0688
     32 CBH       -13.6913    3.3450    5.1044 C.ar        1 SU3      -0.0606
     33 CBI       -13.3699    2.0410    5.5609 C.ar        1 SU3      -0.0432
     34 CBJ       -12.1122    1.3623    5.1395 C.3         1 SU3      -0.0194
     35 NBK       -12.7376   -8.2559   13.3471 N.am        1 SU3      -0.1552
     36 OBL       -14.8669   -7.9414   13.9249 O.2         1 SU3      -0.3404
     37 SBM       -12.9432   -9.7802   12.6528 S.o2        1 SU3       0.0645
     38 CBN       -12.8291  -11.2441   13.7089 C.3         1 SU3       0.1004
     39 OBO       -14.1981   -9.7976   11.6743 O.2         1 SU3      -0.1503
     40 OBP       -11.7203   -9.9294   11.6495 O.2         1 SU3      -0.1503
     41 CBQ       -13.3819  -11.1956   15.1401 C.3         1 SU3      -0.0268
     42 CBR       -14.1474  -11.9577   14.0512 C.3         1 SU3      -0.0268
     43 CBS       -11.0457    1.3401    6.2710 C.3         1 SU3      -0.0433
     44 CBT        -9.6779    0.7233    5.8598 C.3         1 SU3      -0.0507
     45 CBU        -9.6858   -0.8268    5.7096 C.3         1 SU3      -0.0453
     46 CBV        -8.3369   -1.5270    5.2919 C.3         1 SU3      -0.0072
     47 CBW        -8.5749   -3.0747    5.2099 C.3         1 SU3       0.0824
     48 CBX        -7.8726   -1.0382    3.8803 C.3         1 SU3      -0.0574
     49 CBY        -7.1938   -1.2486    6.3210 C.3         1 SU3      -0.0574
     50 CBZ       -12.1032   -8.0821    8.9717 C.3         1 SU3      -0.0558
     51 CCA       -10.1345   -7.7982    7.4161 C.3         1 SU3      -0.0558
     52 CD1       -13.8312   -4.2531    8.8581 C.3         1 SU3       0.0677
     53 OD2       -14.8756   -2.0822    8.6044 O.3         1 SU3      -0.2338
     54 H1        -12.6221   -3.3487   11.6634 H           1 SU3       0.0803
     55 H2        -14.2885   -1.9907   11.0003 H           1 SU3       0.0342
     56 H3        -15.4535   -3.2179   11.4901 H           1 SU3       0.0342
     57 H4        -15.9080   -3.7543    9.2720 H           1 SU3       0.0673
     58 H5        -11.9901   -5.7232    7.8061 H           1 SU3       0.0805
     59 H6         -9.3538   -4.7686    8.6072 H           1 SU3       0.1899
     60 H7        -12.6940   -8.0201   16.3208 H           1 SU3       0.0265
     61 H8        -11.0599   -7.4071   16.0590 H           1 SU3       0.0265
     62 H9        -11.4976   -7.6148   18.4723 H           1 SU3       0.0230
     63 H10       -12.9655   -6.6340   18.3332 H           1 SU3       0.0230
     64 H11       -11.3677   -5.8912   18.0798 H           1 SU3       0.0230
     65 H12        -9.4588   -8.5708    9.8797 H           1 SU3       0.0237
     66 H13       -10.2731   -7.3750   10.8729 H           1 SU3       0.0237
     67 H14        -8.9232   -6.8840    9.8294 H           1 SU3       0.0237
     68 H15       -12.6000   -4.4410   13.5356 H           1 SU3       0.1839
     69 H16       -11.9764   -5.0503   15.5845 H           1 SU3       0.0312
     70 H17       -14.6894   -6.3769   16.1656 H           1 SU3       0.0279
     71 H18       -14.3524   -4.6103   15.6352 H           1 SU3       0.0279
     72 H19       -16.9819    1.4312    8.2238 H           1 SU3       0.0373
     73 H20       -13.5752   -0.5394    6.9413 H           1 SU3       0.0361
     74 H21       -16.6035    3.8405    6.7421 H           1 SU3       0.0557
     75 H22       -15.0763    4.9423    5.1929 H           1 SU3       0.0599
     76 H23       -13.0624    3.8353    4.4645 H           1 SU3       0.0557
     77 H24       -11.6837    1.8729    4.2728 H           1 SU3       0.0426
     78 H25       -12.3519    0.3456    4.8215 H           1 SU3       0.0426
     79 H26       -11.8465   -7.8723   13.3133 H           1 SU3       0.2148
     80 H27       -11.9808  -11.9154   13.5614 H           1 SU3       0.0559
     81 H28       -13.8423  -10.2612   15.4647 H           1 SU3       0.0285
     82 H29       -12.8667  -11.8235   15.8712 H           1 SU3       0.0285
     83 H30       -14.0940  -13.0476   14.1146 H           1 SU3       0.0285
     84 H31       -15.0850  -11.4859   13.7480 H           1 SU3       0.0285
     85 H32       -11.4280    0.8008    7.1406 H           1 SU3       0.0287
     86 H33       -10.8638    2.3724    6.5831 H           1 SU3       0.0287
     87 H34        -8.9555    0.9922    6.6338 H           1 SU3       0.0267
     88 H35        -9.3537    1.1910    4.9285 H           1 SU3       0.0267
     89 H36       -10.4474   -1.0920    4.9725 H           1 SU3       0.0271
     90 H37       -10.0136   -1.2423    6.6657 H           1 SU3       0.0271
     91 H38        -9.3315   -3.2936    4.4519 H           1 SU3       0.0617
     92 H39        -7.6582   -3.5780    4.8973 H           1 SU3       0.0617
     93 H40        -7.5928    0.0160    3.8984 H           1 SU3       0.0236
     94 H41        -8.6686   -1.1675    3.1433 H           1 SU3       0.0236
     95 H42        -7.0005   -1.6021    3.5399 H           1 SU3       0.0236
     96 H43        -7.5022   -1.5217    7.3311 H           1 SU3       0.0236
     97 H44        -6.9143   -0.1942    6.3254 H           1 SU3       0.0236
     98 H45        -6.2992   -1.8250    6.0722 H           1 SU3       0.0236
     99 H46       -12.8026   -7.9567    8.1412 H           1 SU3       0.0237
    100 H47       -12.6040   -7.7616    9.8875 H           1 SU3       0.0237
    101 H48       -11.8814   -9.1495    9.0576 H           1 SU3       0.0237
    102 H49        -9.1699   -7.3144    7.2379 H           1 SU3       0.0237
    103 H50       -10.7746   -7.6184    6.5489 H           1 SU3       0.0237
    104 H51        -9.9546   -8.8751    7.4869 H           1 SU3       0.0237
    105 H52       -14.2712   -5.2133    8.5747 H           1 SU3       0.0553
    106 H53       -13.3400   -3.8198    7.9818 H           1 SU3       0.0553
@<TRIPOS>BOND
     1     1     3   2
     2     1     4   1
     3    21     1  am
     4     4     2   1
     5     2     7  am
     6     2    52   1
     7     4     5   1
     8     5     6   1
     9     6    52   1
    10     6    53   1
    11     7     8   2
    12     7     9   1
    13     9    10   1
    14     9    13   1
    15    10    11  am
    16    11    12   1
    17    11    14   2
    18    12    47   1
    19    13    20   1
    20    13    50   1
    21    13    51   1
    22    15    16   2
    23    15    17  am
    24    53    15   1
    25    17    26   1
    26    17    29   1
    27    18    19   1
    28    24    18   1
    29    22    21   1
    30    22    23   1
    31    22    24   1
    32    22    25   1
    33    23    35  am
    34    23    36   2
    35    24    25   1
    36    26    27   2
    37    27    28  ar
    38    27    30  ar
    39    28    29   2
    40    28    33  ar
    41    30    31  ar
    42    31    32  ar
    43    32    33  ar
    44    33    34   1
    45    34    43   1
    46    35    37  am
    47    37    38   1
    48    37    39   2
    49    37    40   2
    50    38    41   1
    51    38    42   1
    52    41    42   1
    53    43    44   1
    54    44    45   1
    55    45    46   1
    56    46    47   1
    57    46    48   1
    58    46    49   1
    59     4    54   1
    60     5    55   1
    61     5    56   1
    62     6    57   1
    63     9    58   1
    64    10    59   1
    65    18    60   1
    66    18    61   1
    67    19    62   1
    68    19    63   1
    69    19    64   1
    70    20    65   1
    71    20    66   1
    72    20    67   1
    73    21    68   1
    74    24    69   1
    75    25    70   1
    76    25    71   1
    77    26    72   1
    78    29    73   1
    79    30    74   1
    80    31    75   1
    81    32    76   1
    82    34    77   1
    83    34    78   1
    84    35    79   1
    85    38    80   1
    86    41    81   1
    87    41    82   1
    88    42    83   1
    89    42    84   1
    90    43    85   1
    91    43    86   1
    92    44    87   1
    93    44    88   1
    94    45    89   1
    95    45    90   1
    96    47    91   1
    97    47    92   1
    98    48    93   1
    99    48    94   1
   100    48    95   1
   101    49    96   1
   102    49    97   1
   103    49    98   1
   104    50    99   1
   105    50   100   1
   106    50   101   1
   107    51   102   1
   108    51   103   1
   109    51   104   1
   110    52   105   1
   111    52   106   1
@<TRIPOS>SUBSTRUCTURE
     1  SU3      1

