@<TRIPOS>MOLECULE
3su5_ligand_038
   106   111
SMALL
GAST_HUCK
****
This file was generated by PARSER (from files_GN.cpp)

@<TRIPOS>ATOM
      1 C         -10.5804   -5.5118   11.5654 C.2         1 SU3       0.2013
      2 N         -13.0011   -5.1925   11.7793 N.am        1 SU3      -0.2469
      3 O         -10.4413   -4.8417   12.5854 O.2         1 SU3      -0.3947
      4 CA        -11.9080   -5.6814   10.9636 C.3         1 SU3       0.1363
      5 CB        -11.9990   -4.9177    9.6158 C.3         1 SU3       0.0206
      6 CG        -13.3342   -4.1549    9.6609 C.3         1 SU3       0.1158
      7 CAF       -13.3296   -5.7039   12.9867 C.2         1 SU3       0.2070
      8 OAG       -12.8329   -6.7744   13.3176 O.2         1 SU3      -0.3942
      9 CAH       -14.2327   -5.0778   13.9731 C.3         1 SU3       0.1378
     10 NAI       -15.4133   -5.9047   14.0152 N.am        1 SU3      -0.2407
     11 CAJ       -16.6980   -5.5424   13.8099 C.2         1 SU3       0.3218
     12 OAK       -17.6379   -6.4967   14.0472 O.3         1 SU3      -0.2633
     13 CAL       -13.6420   -4.8213   15.4352 C.3         1 SU3       0.0025
     14 OAM       -17.0457   -4.2854   13.4398 O.2         1 SU3      -0.3774
     15 CAO       -14.4931   -4.9383    7.5744 C.2         1 SU3       0.4317
     16 OAP       -13.5039   -4.4668    6.7754 O.2         1 SU3      -0.3166
     17 NAQ       -15.6089   -5.4941    7.0343 N.am        1 SU3      -0.2080
     18 CAR        -6.9794   -6.4839   13.8684 C.3         1 SU3      -0.0516
     19 CAS        -7.6809   -5.8440   15.0834 C.3         1 SU3      -0.0651
     20 CAT       -12.1104   -4.4990   15.4271 C.3         1 SU3      -0.0558
     21 NAV        -9.5219   -6.0414   10.9614 N.am        1 SU3      -0.2737
     22 CAX        -8.1802   -6.0225   11.4706 C.3         1 SU3       0.1374
     23 CAY        -7.3503   -4.8519   11.2008 C.2         1 SU3       0.2444
     24 CAZ        -8.0146   -6.8419   12.7788 C.3         1 SU3      -0.0066
     25 CBA        -7.4773   -7.4002   11.4544 C.3         1 SU3      -0.0152
     26 CBB       -15.8425   -5.6762    5.7151 C.2         1 SU3       0.0383
     27 CBC       -17.1097   -6.2242    5.5557 C.ar        1 SU3      -0.0374
     28 CBD       -17.6559   -6.3826    6.8273 C.ar        1 SU3      -0.0293
     29 CBE       -16.6921   -5.9201    7.7229 C.2         1 SU3       0.0366
     30 CBF       -17.8280   -6.5783    4.4031 C.ar        1 SU3      -0.0689
     31 CBG       -19.1280   -7.0963    4.5563 C.ar        1 SU3      -0.0688
     32 CBH       -19.6887   -7.2535    5.8420 C.ar        1 SU3      -0.0606
     33 CBI       -18.9598   -6.9025    7.0072 C.ar        1 SU3      -0.0432
     34 CBJ       -19.5570   -7.0547    8.3622 C.3         1 SU3      -0.0194
     35 NBK        -7.7259   -3.6720   11.6687 N.am        1 SU3      -0.1552
     36 OBL        -6.3601   -4.9506   10.4785 O.2         1 SU3      -0.3404
     37 SBM        -6.9630   -2.1895   11.3924 S.o2        1 SU3       0.0645
     38 CBN        -6.3061   -1.9590    9.7203 C.3         1 SU3       0.1004
     39 OBO        -8.1472   -1.1283   11.4954 O.2         1 SU3      -0.1503
     40 OBP        -5.9358   -1.8132   12.5466 O.2         1 SU3      -0.1503
     41 CBQ        -5.7477   -0.5706    9.3679 C.3         1 SU3      -0.0268
     42 CBR        -4.7927   -1.7590    9.5370 C.3         1 SU3      -0.0268
     43 CBS       -18.9821   -8.2780    9.1306 C.3         1 SU3      -0.0433
     44 CBT       -19.5912   -8.4890   10.5452 C.3         1 SU3      -0.0507
     45 CBU       -19.1342   -7.4351   11.5974 C.3         1 SU3      -0.0453
     46 CBV       -19.6609   -7.5959   13.0723 C.3         1 SU3      -0.0072
     47 CBW       -19.0696   -6.4246   13.9365 C.3         1 SU3       0.0824
     48 CBX       -21.2195   -7.4906   13.1290 C.3         1 SU3      -0.0574
     49 CBY       -19.2209   -8.9655   13.6867 C.3         1 SU3      -0.0574
     50 CBZ       -14.3721   -3.5855   16.0673 C.3         1 SU3      -0.0558
     51 CCA       -13.8595   -6.0456   16.3904 C.3         1 SU3      -0.0558
     52 CD1       -13.6891   -4.1043   11.1569 C.3         1 SU3       0.0677
     53 OD2       -14.3884   -4.7978    8.9250 O.3         1 SU3      -0.2338
     54 H1        -12.0739   -6.7477   10.7727 H           1 SU3       0.0803
     55 H2        -11.9501   -5.6067    8.7687 H           1 SU3       0.0342
     56 H3        -11.1901   -4.1929    9.4998 H           1 SU3       0.0342
     57 H4        -13.2233   -3.1382    9.2729 H           1 SU3       0.0673
     58 H5        -14.5135   -4.0971   13.5820 H           1 SU3       0.0805
     59 H6        -15.2710   -6.8299   14.2722 H           1 SU3       0.1899
     60 H7         -6.4744   -7.3990   14.1832 H           1 SU3       0.0265
     61 H8         -6.2269   -5.7933   13.4898 H           1 SU3       0.0265
     62 H9         -6.9566   -5.6041   15.8643 H           1 SU3       0.0230
     63 H10        -8.4155   -6.5330   15.4979 H           1 SU3       0.0230
     64 H11        -8.1903   -4.9256   14.7887 H           1 SU3       0.0230
     65 H12       -11.7774   -4.1789   16.4145 H           1 SU3       0.0237
     66 H13       -11.8901   -3.7015   14.7212 H           1 SU3       0.0237
     67 H14       -11.5251   -5.3764   15.1537 H           1 SU3       0.0237
     68 H15        -9.6768   -6.5389   10.1410 H           1 SU3       0.1839
     69 H16        -8.8925   -7.4043   13.1156 H           1 SU3       0.0312
     70 H17        -6.3896   -7.4114   11.3522 H           1 SU3       0.0279
     71 H18        -8.0490   -8.2331   11.0352 H           1 SU3       0.0279
     72 H19       -15.2101   -5.4362    4.9467 H           1 SU3       0.0373
     73 H20       -16.8054   -5.8841    8.7389 H           1 SU3       0.0361
     74 H21       -17.4190   -6.4567    3.4756 H           1 SU3       0.0557
     75 H22       -19.6698   -7.3549    3.7313 H           1 SU3       0.0599
     76 H23       -20.6355   -7.6300    5.9222 H           1 SU3       0.0557
     77 H24       -20.6420   -7.1763    8.2871 H           1 SU3       0.0426
     78 H25       -19.3811   -6.1336    8.9225 H           1 SU3       0.0426
     79 H26        -8.5428   -3.6447   12.1901 H           1 SU3       0.2148
     80 H27        -6.8239   -2.4485    8.8949 H           1 SU3       0.0559
     81 H28        -5.6867    0.1773   10.1595 H           1 SU3       0.0285
     82 H29        -5.8789   -0.2444    8.3359 H           1 SU3       0.0285
     83 H30        -4.3545   -2.1250    8.6047 H           1 SU3       0.0285
     84 H31        -4.1679   -1.7093   10.4305 H           1 SU3       0.0285
     85 H32       -17.8961   -8.1893    9.2210 H           1 SU3       0.0287
     86 H33       -19.1866   -9.1765    8.5395 H           1 SU3       0.0287
     87 H34       -19.2854   -9.4807   10.8835 H           1 SU3       0.0267
     88 H35       -20.6793   -8.4872   10.4614 H           1 SU3       0.0267
     89 H36       -19.4363   -6.4478   11.2396 H           1 SU3       0.0271
     90 H37       -18.0397   -7.4460   11.6134 H           1 SU3       0.0271
     91 H38       -19.3789   -5.4577   13.5207 H           1 SU3       0.0617
     92 H39       -19.4715   -6.4769   14.9520 H           1 SU3       0.0617
     93 H40       -21.6919   -8.3224   12.6082 H           1 SU3       0.0236
     94 H41       -21.5603   -6.5601   12.6719 H           1 SU3       0.0236
     95 H42       -21.5708   -7.5084   14.1619 H           1 SU3       0.0236
     96 H43       -18.1415   -9.1062   13.5953 H           1 SU3       0.0236
     97 H44       -19.7151   -9.7983   13.1851 H           1 SU3       0.0236
     98 H45       -19.4835   -9.0197   14.7445 H           1 SU3       0.0236
     99 H46       -15.4546   -3.7222   16.0585 H           1 SU3       0.0237
    100 H47       -14.1493   -2.6731   15.5114 H           1 SU3       0.0237
    101 H48       -14.0580   -3.4299   17.1014 H           1 SU3       0.0237
    102 H49       -13.4522   -6.9620   15.9583 H           1 SU3       0.0237
    103 H50       -14.9139   -6.2000   16.5880 H           1 SU3       0.0237
    104 H51       -13.3660   -5.8817   17.3563 H           1 SU3       0.0237
    105 H52       -13.3444   -3.1661   11.5992 H           1 SU3       0.0553
    106 H53       -14.7737   -4.1775   11.2761 H           1 SU3       0.0553
@<TRIPOS>BOND
     1     1     3   2
     2     1     4   1
     3    21     1  am
     4     4     2   1
     5     2     7  am
     6     2    52   1
     7     4     5   1
     8     5     6   1
     9     6    52   1
    10     6    53   1
    11     7     8   2
    12     7     9   1
    13     9    10   1
    14     9    13   1
    15    10    11  am
    16    11    12   1
    17    11    14   2
    18    12    47   1
    19    13    20   1
    20    13    50   1
    21    13    51   1
    22    15    16   2
    23    15    17  am
    24    53    15   1
    25    17    26   1
    26    17    29   1
    27    18    19   1
    28    24    18   1
    29    22    21   1
    30    22    23   1
    31    22    24   1
    32    22    25   1
    33    23    35  am
    34    23    36   2
    35    24    25   1
    36    26    27   2
    37    27    28  ar
    38    27    30  ar
    39    28    29   2
    40    28    33  ar
    41    30    31  ar
    42    31    32  ar
    43    32    33  ar
    44    33    34   1
    45    34    43   1
    46    35    37  am
    47    37    38   1
    48    37    39   2
    49    37    40   2
    50    38    41   1
    51    38    42   1
    52    41    42   1
    53    43    44   1
    54    44    45   1
    55    45    46   1
    56    46    47   1
    57    46    48   1
    58    46    49   1
    59     4    54   1
    60     5    55   1
    61     5    56   1
    62     6    57   1
    63     9    58   1
    64    10    59   1
    65    18    60   1
    66    18    61   1
    67    19    62   1
    68    19    63   1
    69    19    64   1
    70    20    65   1
    71    20    66   1
    72    20    67   1
    73    21    68   1
    74    24    69   1
    75    25    70   1
    76    25    71   1
    77    26    72   1
    78    29    73   1
    79    30    74   1
    80    31    75   1
    81    32    76   1
    82    34    77   1
    83    34    78   1
    84    35    79   1
    85    38    80   1
    86    41    81   1
    87    41    82   1
    88    42    83   1
    89    42    84   1
    90    43    85   1
    91    43    86   1
    92    44    87   1
    93    44    88   1
    94    45    89   1
    95    45    90   1
    96    47    91   1
    97    47    92   1
    98    48    93   1
    99    48    94   1
   100    48    95   1
   101    49    96   1
   102    49    97   1
   103    49    98   1
   104    50    99   1
   105    50   100   1
   106    50   101   1
   107    51   102   1
   108    51   103   1
   109    51   104   1
   110    52   105   1
   111    52   106   1
@<TRIPOS>SUBSTRUCTURE
     1  SU3      1

