@<TRIPOS>MOLECULE
3su5_ligand_049
   106   111
SMALL
GAST_HUCK
****
This file was generated by PARSER (from files_GN.cpp)

@<TRIPOS>ATOM
      1 C         -22.6396  -11.8851   16.0543 C.2         1 SU3       0.2013
      2 N         -20.2539  -11.3480   16.0528 N.am        1 SU3      -0.2469
      3 O         -23.5027  -12.7473   15.9434 O.2         1 SU3      -0.3947
      4 CA        -21.2849  -12.2928   16.4281 C.3         1 SU3       0.1363
      5 CB        -21.1613  -12.4721   17.9615 C.3         1 SU3       0.0206
      6 CG        -19.7840  -11.8899   18.3289 C.3         1 SU3       0.1158
      7 CAF       -20.0150  -10.9674   14.7793 C.2         1 SU3       0.2070
      8 OAG       -20.5884  -11.5709   13.8802 O.2         1 SU3      -0.3942
      9 CAH       -19.1132   -9.8788   14.3444 C.3         1 SU3       0.1378
     10 NAI       -18.0330  -10.4746   13.6033 N.am        1 SU3      -0.2407
     11 CAJ       -16.7098  -10.3548   13.8602 C.2         1 SU3       0.3218
     12 OAK       -15.8662  -10.9155   12.9539 O.3         1 SU3      -0.2633
     13 CAL       -19.7754   -8.6914   13.5152 C.3         1 SU3       0.0025
     14 OAM       -16.2479   -9.6481   14.9232 O.2         1 SU3      -0.3774
     15 CAO       -18.5457  -13.8733   19.2865 C.2         1 SU3       0.4317
     16 OAP       -19.4621  -14.0698   20.2625 O.2         1 SU3      -0.3166
     17 NAQ       -17.4196  -14.6276   19.2438 N.am        1 SU3      -0.2080
     18 CAR       -26.8733  -10.3502   15.9963 C.3         1 SU3      -0.0516
     19 CAS       -27.8267   -9.7697   17.0696 C.3         1 SU3      -0.0651
     20 CAT       -18.8275   -7.4407   13.5449 C.3         1 SU3      -0.0558
     21 NAV       -22.9337  -10.6033   15.8826 N.am        1 SU3      -0.2737
     22 CAX       -24.1986  -10.0566   15.5050 C.3         1 SU3       0.1374
     23 CAY       -24.4751   -9.9255   14.0815 C.2         1 SU3       0.2444
     24 CAZ       -25.3901  -10.3309   16.4591 C.3         1 SU3      -0.0066
     25 CBA       -24.6994   -8.9616   16.4748 C.3         1 SU3      -0.0152
     26 CBB       -17.0978  -15.6199   20.1044 C.2         1 SU3       0.0383
     27 CBC       -15.8497  -16.1250   19.7653 C.ar        1 SU3      -0.0374
     28 CBD       -15.3980  -15.4107   18.6569 C.ar        1 SU3      -0.0293
     29 CBE       -16.4039  -14.4921   18.3569 C.2         1 SU3       0.0366
     30 CBF       -15.0675  -17.1329   20.3533 C.ar        1 SU3      -0.0689
     31 CBG       -13.8019  -17.4089   19.7986 C.ar        1 SU3      -0.0688
     32 CBH       -13.3399  -16.6862   18.6767 C.ar        1 SU3      -0.0606
     33 CBI       -14.1276  -15.6677   18.0807 C.ar        1 SU3      -0.0432
     34 CBJ       -13.6355  -14.9042   16.9031 C.3         1 SU3      -0.0194
     35 NBK       -24.4919   -8.7304   13.5186 N.am        1 SU3      -0.1552
     36 OBL       -24.6571  -10.9485   13.4379 O.2         1 SU3      -0.3404
     37 SBM       -24.7873   -8.4205   11.8881 S.o2        1 SU3       0.0645
     38 CBN       -25.0303   -6.6371   11.7223 C.3         1 SU3       0.1004
     39 OBO       -23.5832   -8.9442   10.9810 O.2         1 SU3      -0.1503
     40 OBP       -26.1806   -9.0752   11.4681 O.2         1 SU3      -0.1503
     41 CBQ       -23.7966   -5.7471   11.9179 C.3         1 SU3      -0.0268
     42 CBR       -24.4199   -5.8978   10.5234 C.3         1 SU3      -0.0268
     43 CBS       -14.3077  -15.3618   15.5784 C.3         1 SU3      -0.0433
     44 CBT       -13.7876  -14.6321   14.3098 C.3         1 SU3      -0.0507
     45 CBU       -14.2669  -13.1539   14.1728 C.3         1 SU3      -0.0453
     46 CBV       -13.8462  -12.3693   12.8753 C.3         1 SU3      -0.0072
     47 CBW       -14.4328  -10.9171   12.9547 C.3         1 SU3       0.0824
     48 CBX       -12.2905  -12.2487   12.7749 C.3         1 SU3      -0.0574
     49 CBY       -14.3872  -13.0607   11.5801 C.3         1 SU3      -0.0574
     50 CBZ       -20.0432   -9.0461   12.0109 C.3         1 SU3      -0.0558
     51 CCA       -21.1345   -8.2665   14.1640 C.3         1 SU3      -0.0558
     52 CD1       -19.5039  -10.8906   17.1895 C.3         1 SU3       0.0677
     53 OD2       -18.7301  -12.8677   18.3857 O.3         1 SU3      -0.2338
     54 H1        -21.0404  -13.2471   15.9495 H           1 SU3       0.0803
     55 H2        -21.2460  -13.5242   18.2392 H           1 SU3       0.0342
     56 H3        -21.9338  -11.9166   18.5061 H           1 SU3       0.0342
     57 H4        -19.8224  -11.3659   19.2909 H           1 SU3       0.0673
     58 H5        -18.7071   -9.4019   15.2349 H           1 SU3       0.0805
     59 H6        -18.2813  -10.9867   12.8130 H           1 SU3       0.1899
     60 H7        -27.0098   -9.7825   15.0694 H           1 SU3       0.0265
     61 H8        -27.1530  -11.3894   15.7981 H           1 SU3       0.0265
     62 H9        -28.8599   -9.9008   16.7461 H           1 SU3       0.0230
     63 H10       -27.6323   -8.7007   17.2131 H           1 SU3       0.0230
     64 H11       -27.6845  -10.2921   18.0222 H           1 SU3       0.0230
     65 H12       -19.2680   -6.6009   12.9972 H           1 SU3       0.0237
     66 H13       -17.8622   -7.6715   13.0858 H           1 SU3       0.0237
     67 H14       -18.6516   -7.1182   14.5757 H           1 SU3       0.0237
     68 H15       -22.2013   -9.9700   15.9901 H           1 SU3       0.1839
     69 H16       -25.1471  -10.9387   17.3370 H           1 SU3       0.0312
     70 H17       -25.2532   -8.1292   16.0385 H           1 SU3       0.0279
     71 H18       -24.0753   -8.7635   17.3500 H           1 SU3       0.0279
     72 H19       -17.6609  -15.9471   20.8946 H           1 SU3       0.0373
     73 H20       -16.3623  -13.8073   17.5989 H           1 SU3       0.0361
     74 H21       -15.4010  -17.6439   21.1718 H           1 SU3       0.0557
     75 H22       -13.2103  -18.1251   20.2197 H           1 SU3       0.0599
     76 H23       -12.4168  -16.9117   18.2979 H           1 SU3       0.0557
     77 H24       -12.5558  -15.0296   16.8011 H           1 SU3       0.0426
     78 H25       -13.8158  -13.8428   17.0763 H           1 SU3       0.0426
     79 H26       -24.3552   -7.9511   14.0852 H           1 SU3       0.2148
     80 H27       -25.9516   -6.2064   12.1338 H           1 SU3       0.0559
     81 H28       -22.8371   -6.2532   12.0613 H           1 SU3       0.0285
     82 H29       -23.9733   -4.7857   12.4070 H           1 SU3       0.0285
     83 H30       -24.9719   -5.0261   10.1627 H           1 SU3       0.0285
     84 H31       -23.8307   -6.4893    9.8147 H           1 SU3       0.0285
     85 H32       -15.3913  -15.2357   15.6438 H           1 SU3       0.0287
     86 H33       -14.1113  -16.4316   15.4522 H           1 SU3       0.0287
     87 H34       -14.1434  -15.1959   13.4446 H           1 SU3       0.0267
     88 H35       -12.6966  -14.6725   14.3055 H           1 SU3       0.0267
     89 H36       -13.9001  -12.6010   15.0408 H           1 SU3       0.0271
     90 H37       -15.3579  -13.1612   14.2392 H           1 SU3       0.0271
     91 H38       -14.0395  -10.4022   13.8348 H           1 SU3       0.0617
     92 H39       -14.1227  -10.3407   12.0820 H           1 SU3       0.0617
     93 H40       -11.8220  -13.2267   12.6526 H           1 SU3       0.0236
     94 H41       -11.8862  -11.7845   13.6763 H           1 SU3       0.0236
     95 H42       -12.0004  -11.6362   11.9181 H           1 SU3       0.0236
     96 H43       -15.4617  -13.2382   11.6554 H           1 SU3       0.0236
     97 H44       -13.8954  -14.0197   11.4089 H           1 SU3       0.0236
     98 H45       -14.2059  -12.4369   10.7029 H           1 SU3       0.0236
     99 H46       -20.7318   -9.8842   11.9084 H           1 SU3       0.0237
    100 H47       -19.1137   -9.3055   11.4945 H           1 SU3       0.0237
    101 H48       -20.4884   -8.1987   11.4826 H           1 SU3       0.0237
    102 H49       -21.0031   -8.0833   15.2323 H           1 SU3       0.0237
    103 H50       -21.8758   -9.0631   14.0367 H           1 SU3       0.0237
    104 H51       -21.5284   -7.3516   13.7023 H           1 SU3       0.0237
    105 H52       -19.8464   -9.8897   17.4683 H           1 SU3       0.0553
    106 H53       -18.4244  -10.8596   16.9972 H           1 SU3       0.0553
@<TRIPOS>BOND
     1     1     3   2
     2     1     4   1
     3    21     1  am
     4     4     2   1
     5     2     7  am
     6     2    52   1
     7     4     5   1
     8     5     6   1
     9     6    52   1
    10     6    53   1
    11     7     8   2
    12     7     9   1
    13     9    10   1
    14     9    13   1
    15    10    11  am
    16    11    12   1
    17    11    14   2
    18    12    47   1
    19    13    20   1
    20    13    50   1
    21    13    51   1
    22    15    16   2
    23    15    17  am
    24    53    15   1
    25    17    26   1
    26    17    29   1
    27    18    19   1
    28    24    18   1
    29    22    21   1
    30    22    23   1
    31    22    24   1
    32    22    25   1
    33    23    35  am
    34    23    36   2
    35    24    25   1
    36    26    27   2
    37    27    28  ar
    38    27    30  ar
    39    28    29   2
    40    28    33  ar
    41    30    31  ar
    42    31    32  ar
    43    32    33  ar
    44    33    34   1
    45    34    43   1
    46    35    37  am
    47    37    38   1
    48    37    39   2
    49    37    40   2
    50    38    41   1
    51    38    42   1
    52    41    42   1
    53    43    44   1
    54    44    45   1
    55    45    46   1
    56    46    47   1
    57    46    48   1
    58    46    49   1
    59     4    54   1
    60     5    55   1
    61     5    56   1
    62     6    57   1
    63     9    58   1
    64    10    59   1
    65    18    60   1
    66    18    61   1
    67    19    62   1
    68    19    63   1
    69    19    64   1
    70    20    65   1
    71    20    66   1
    72    20    67   1
    73    21    68   1
    74    24    69   1
    75    25    70   1
    76    25    71   1
    77    26    72   1
    78    29    73   1
    79    30    74   1
    80    31    75   1
    81    32    76   1
    82    34    77   1
    83    34    78   1
    84    35    79   1
    85    38    80   1
    86    41    81   1
    87    41    82   1
    88    42    83   1
    89    42    84   1
    90    43    85   1
    91    43    86   1
    92    44    87   1
    93    44    88   1
    94    45    89   1
    95    45    90   1
    96    47    91   1
    97    47    92   1
    98    48    93   1
    99    48    94   1
   100    48    95   1
   101    49    96   1
   102    49    97   1
   103    49    98   1
   104    50    99   1
   105    50   100   1
   106    50   101   1
   107    51   102   1
   108    51   103   1
   109    51   104   1
   110    52   105   1
   111    52   106   1
@<TRIPOS>SUBSTRUCTURE
     1  SU3      1

