@<TRIPOS>MOLECULE
3su5_ligand_061
   106   111
SMALL
GAST_HUCK
****
This file was generated by PARSER (from files_GN.cpp)

@<TRIPOS>ATOM
      1 C         -18.5406  -10.9917   14.6541 C.2         1 SU3       0.2013
      2 N         -16.7196  -10.6213   13.0592 N.am        1 SU3      -0.2469
      3 O         -18.5416  -12.2170   14.6046 O.2         1 SU3      -0.3947
      4 CA        -18.0426  -10.2385   13.5021 C.3         1 SU3       0.1363
      5 CB        -18.9741  -10.4299   12.2779 C.3         1 SU3       0.0206
      6 CG        -18.0227  -10.3656   11.0767 C.3         1 SU3       0.1158
      7 CAF       -15.6375  -10.6645   13.8641 C.2         1 SU3       0.2070
      8 OAG       -15.7578  -10.2684   15.0176 O.2         1 SU3      -0.3942
      9 CAH       -14.2985  -11.1635   13.5006 C.3         1 SU3       0.1378
     10 NAI       -13.3701  -10.0925   13.7391 N.am        1 SU3      -0.2407
     11 CAJ       -12.6353   -9.4143   12.8283 C.2         1 SU3       0.3218
     12 OAK       -11.8627   -8.4085   13.3096 O.3         1 SU3      -0.2633
     13 CAL       -13.8448  -12.5005   14.2283 C.3         1 SU3       0.0025
     14 OAM       -12.6721   -9.7074   11.5052 O.2         1 SU3      -0.3774
     15 CAO       -18.7038   -8.2171    9.9619 C.2         1 SU3       0.4317
     16 OAP       -19.9392   -8.6825    9.6561 O.2         1 SU3      -0.3166
     17 NAQ       -18.3302   -6.9600    9.6054 N.am        1 SU3      -0.2080
     18 CAR       -19.2944  -13.0498   18.5963 C.3         1 SU3      -0.0516
     19 CAS       -18.7509  -13.0899   20.0422 C.3         1 SU3      -0.0651
     20 CAT       -14.9956  -13.5642   14.2234 C.3         1 SU3      -0.0558
     21 NAV       -18.9915  -10.3516   15.7231 N.am        1 SU3      -0.2737
     22 CAX       -19.5844  -10.9730   16.8613 C.3         1 SU3       0.1374
     23 CAY       -21.0287  -11.0076   16.8520 C.2         1 SU3       0.2444
     24 CAZ       -18.7002  -11.8806   17.7636 C.3         1 SU3      -0.0066
     25 CBA       -19.0061  -10.4403   18.1942 C.3         1 SU3      -0.0152
     26 CBB       -19.0930   -6.0598    8.9459 C.2         1 SU3       0.0383
     27 CBC       -18.3522   -4.9000    8.7575 C.ar        1 SU3      -0.0374
     28 CBD       -17.0991   -5.1079    9.3307 C.ar        1 SU3      -0.0293
     29 CBE       -17.1229   -6.4016    9.8471 C.2         1 SU3       0.0366
     30 CBF       -18.6724   -3.6873    8.1248 C.ar        1 SU3      -0.0689
     31 CBG       -17.6942   -2.6787    8.0752 C.ar        1 SU3      -0.0688
     32 CBH       -16.4193   -2.8870    8.6535 C.ar        1 SU3      -0.0606
     33 CBI       -16.0984   -4.1074    9.2995 C.ar        1 SU3      -0.0432
     34 CBJ       -14.7598   -4.3225    9.9148 C.3         1 SU3      -0.0194
     35 NBK       -21.6941   -9.8662   16.9231 N.am        1 SU3      -0.1552
     36 OBL       -21.5756  -12.0992   16.7338 O.2         1 SU3      -0.3404
     37 SBM       -23.3741   -9.7525   16.9995 S.o2        1 SU3       0.0645
     38 CBN       -23.9937  -10.5595   18.4965 C.3         1 SU3       0.1004
     39 OBO       -23.7113   -8.1978   17.0547 O.2         1 SU3      -0.1503
     40 OBP       -24.0286  -10.2933   15.6515 O.2         1 SU3      -0.1503
     41 CBQ       -25.2965  -10.0594   19.1398 C.3         1 SU3      -0.0268
     42 CBR       -25.2788  -11.3914   18.3827 C.3         1 SU3      -0.0268
     43 CBS       -14.8013   -4.2334   11.4663 C.3         1 SU3      -0.0433
     44 CBT       -13.4120   -4.3646   12.1511 C.3         1 SU3      -0.0507
     45 CBU       -12.8017   -5.7980   12.1082 C.3         1 SU3      -0.0453
     46 CBV       -11.3910   -6.0165   12.7766 C.3         1 SU3      -0.0072
     47 CBW       -10.9807   -7.5210   12.6054 C.3         1 SU3       0.0824
     48 CBX       -10.2989   -5.1427   12.0758 C.3         1 SU3      -0.0574
     49 CBY       -11.4209   -5.6629   14.2998 C.3         1 SU3      -0.0574
     50 CBZ       -12.6327  -13.1200   13.4500 C.3         1 SU3      -0.0558
     51 CCA       -13.3892  -12.2804   15.7112 C.3         1 SU3      -0.0558
     52 CD1       -16.7031  -10.9126   11.6535 C.3         1 SU3       0.0677
     53 OD2       -17.8243   -9.0198   10.6180 O.3         1 SU3      -0.2338
     54 H1        -18.0069   -9.1671   13.7373 H           1 SU3       0.0803
     55 H2        -19.7448   -9.6572   12.2416 H           1 SU3       0.0342
     56 H3        -19.4673  -11.4066   12.2769 H           1 SU3       0.0342
     57 H4        -18.3693  -10.9874   10.2470 H           1 SU3       0.0673
     58 H5        -14.2943  -11.3959   12.4363 H           1 SU3       0.0805
     59 H6        -13.2765   -9.7987   14.6601 H           1 SU3       0.1899
     60 H7        -20.3908  -12.9906   18.6318 H           1 SU3       0.0265
     61 H8        -19.0220  -13.9848   18.0970 H           1 SU3       0.0265
     62 H9        -19.0434  -14.0308   20.5171 H           1 SU3       0.0230
     63 H10       -19.1723  -12.2632   20.6188 H           1 SU3       0.0230
     64 H11       -17.6573  -13.0176   20.0531 H           1 SU3       0.0230
     65 H12       -14.6477  -14.5258   14.6106 H           1 SU3       0.0237
     66 H13       -15.3712  -13.7234   13.2100 H           1 SU3       0.0237
     67 H14       -15.8300  -13.2391   14.8488 H           1 SU3       0.0237
     68 H15       -18.9949   -9.3798   15.7094 H           1 SU3       0.1839
     69 H16       -17.6737  -12.0108   17.4096 H           1 SU3       0.0312
     70 H17       -19.6939  -10.3387   19.0379 H           1 SU3       0.0279
     71 H18       -18.1692   -9.7422   18.1222 H           1 SU3       0.0279
     72 H19       -20.0551   -6.1978    8.6247 H           1 SU3       0.0373
     73 H20       -16.3392   -6.8535   10.3249 H           1 SU3       0.0361
     74 H21       -19.5938   -3.5443    7.7061 H           1 SU3       0.0557
     75 H22       -17.9038   -1.7885    7.6188 H           1 SU3       0.0599
     76 H23       -15.7309   -2.1321    8.6052 H           1 SU3       0.0557
     77 H24       -14.0515   -3.5757    9.5446 H           1 SU3       0.0426
     78 H25       -14.3855   -5.2975    9.5977 H           1 SU3       0.0426
     79 H26       -21.1780   -9.0431   16.9965 H           1 SU3       0.2148
     80 H27       -23.2550  -10.9588   19.1991 H           1 SU3       0.0559
     81 H28       -25.8328   -9.2516   18.6354 H           1 SU3       0.0285
     82 H29       -25.3546  -10.1438   20.2271 H           1 SU3       0.0285
     83 H30       -25.3368  -12.2789   19.0155 H           1 SU3       0.0285
     84 H31       -25.8176  -11.3754   17.4330 H           1 SU3       0.0285
     85 H32       -15.4692   -4.9975   11.8697 H           1 SU3       0.0287
     86 H33       -15.2179   -3.2593   11.7392 H           1 SU3       0.0287
     87 H34       -13.5322   -4.0658   13.1946 H           1 SU3       0.0267
     88 H35       -12.7307   -3.6551   11.6812 H           1 SU3       0.0267
     89 H36       -12.7274   -6.1032   11.0619 H           1 SU3       0.0271
     90 H37       -13.5226   -6.4692   12.5842 H           1 SU3       0.0271
     91 H38       -10.9401   -7.7800   11.5440 H           1 SU3       0.0617
     92 H39        -9.9817   -7.6839   13.0138 H           1 SU3       0.0617
     93 H40       -10.4866   -4.0804   12.2260 H           1 SU3       0.0236
     94 H41       -10.2762   -5.3362   11.0012 H           1 SU3       0.0236
     95 H42        -9.3082   -5.3592   12.4821 H           1 SU3       0.0236
     96 H43       -12.2225   -6.2026   14.8081 H           1 SU3       0.0236
     97 H44       -11.5809   -4.5945   14.4544 H           1 SU3       0.0236
     98 H45       -10.4755   -5.9272   14.7783 H           1 SU3       0.0236
     99 H46       -11.8090  -12.4067   13.3869 H           1 SU3       0.0237
    100 H47       -12.9205  -13.3932   12.4310 H           1 SU3       0.0237
    101 H48       -12.2606  -14.0219   13.9447 H           1 SU3       0.0237
    102 H49       -14.1849  -11.8359   16.3078 H           1 SU3       0.0237
    103 H50       -12.5178  -11.6246   15.7597 H           1 SU3       0.0237
    104 H51       -13.1134  -13.2290   16.1801 H           1 SU3       0.0237
    105 H52       -16.6389  -11.9949   11.5067 H           1 SU3       0.0553
    106 H53       -15.8678  -10.4287   11.1390 H           1 SU3       0.0553
@<TRIPOS>BOND
     1     1     3   2
     2     1     4   1
     3    21     1  am
     4     4     2   1
     5     2     7  am
     6     2    52   1
     7     4     5   1
     8     5     6   1
     9     6    52   1
    10     6    53   1
    11     7     8   2
    12     7     9   1
    13     9    10   1
    14     9    13   1
    15    10    11  am
    16    11    12   1
    17    11    14   2
    18    12    47   1
    19    13    20   1
    20    13    50   1
    21    13    51   1
    22    15    16   2
    23    15    17  am
    24    53    15   1
    25    17    26   1
    26    17    29   1
    27    18    19   1
    28    24    18   1
    29    22    21   1
    30    22    23   1
    31    22    24   1
    32    22    25   1
    33    23    35  am
    34    23    36   2
    35    24    25   1
    36    26    27   2
    37    27    28  ar
    38    27    30  ar
    39    28    29   2
    40    28    33  ar
    41    30    31  ar
    42    31    32  ar
    43    32    33  ar
    44    33    34   1
    45    34    43   1
    46    35    37  am
    47    37    38   1
    48    37    39   2
    49    37    40   2
    50    38    41   1
    51    38    42   1
    52    41    42   1
    53    43    44   1
    54    44    45   1
    55    45    46   1
    56    46    47   1
    57    46    48   1
    58    46    49   1
    59     4    54   1
    60     5    55   1
    61     5    56   1
    62     6    57   1
    63     9    58   1
    64    10    59   1
    65    18    60   1
    66    18    61   1
    67    19    62   1
    68    19    63   1
    69    19    64   1
    70    20    65   1
    71    20    66   1
    72    20    67   1
    73    21    68   1
    74    24    69   1
    75    25    70   1
    76    25    71   1
    77    26    72   1
    78    29    73   1
    79    30    74   1
    80    31    75   1
    81    32    76   1
    82    34    77   1
    83    34    78   1
    84    35    79   1
    85    38    80   1
    86    41    81   1
    87    41    82   1
    88    42    83   1
    89    42    84   1
    90    43    85   1
    91    43    86   1
    92    44    87   1
    93    44    88   1
    94    45    89   1
    95    45    90   1
    96    47    91   1
    97    47    92   1
    98    48    93   1
    99    48    94   1
   100    48    95   1
   101    49    96   1
   102    49    97   1
   103    49    98   1
   104    50    99   1
   105    50   100   1
   106    50   101   1
   107    51   102   1
   108    51   103   1
   109    51   104   1
   110    52   105   1
   111    52   106   1
@<TRIPOS>SUBSTRUCTURE
     1  SU3      1

