@<TRIPOS>MOLECULE
3su5_ligand_066
   106   111
SMALL
GAST_HUCK
****
This file was generated by PARSER (from files_GN.cpp)

@<TRIPOS>ATOM
      1 C         -10.5402   -6.4393   10.6007 C.2         1 SU3       0.2013
      2 N         -12.9898   -6.7077   10.3772 N.am        1 SU3      -0.2469
      3 O         -10.7812   -5.4216   11.2406 O.2         1 SU3      -0.3947
      4 CA        -11.6610   -7.2229   10.0836 C.3         1 SU3       0.1363
      5 CB        -11.6146   -7.3254    8.5384 C.3         1 SU3       0.0206
      6 CG        -13.0903   -7.3588    8.1051 C.3         1 SU3       0.1158
      7 CAF       -13.4444   -6.4825   11.6256 C.2         1 SU3       0.2070
      8 OAG       -12.7734   -6.9184   12.5546 O.2         1 SU3      -0.3942
      9 CAH       -14.6620   -5.7438   12.0076 C.3         1 SU3       0.1378
     10 NAI       -15.4240   -6.6028   12.8754 N.am        1 SU3      -0.2407
     11 CAJ       -16.6524   -7.1057   12.6329 C.2         1 SU3       0.3218
     12 OAK       -17.1997   -7.8673   13.6100 O.3         1 SU3      -0.2633
     13 CAL       -14.4059   -4.3161   12.6495 C.3         1 SU3       0.0025
     14 OAM       -17.3146   -6.8833   11.4723 O.2         1 SU3      -0.3774
     15 CAO       -13.4107   -9.7281    7.2762 C.2         1 SU3       0.4317
     16 OAP       -12.5002   -9.5775    6.2851 O.2         1 SU3      -0.3166
     17 NAQ       -14.0985  -10.8914    7.4107 N.am        1 SU3      -0.2080
     18 CAR        -7.3818   -5.5229   13.5489 C.3         1 SU3      -0.0516
     19 CAS        -7.8054   -5.8215   15.0062 C.3         1 SU3      -0.0651
     20 CAT       -15.6571   -3.8594   13.4841 C.3         1 SU3      -0.0558
     21 NAV        -9.2852   -6.8364   10.4206 N.am        1 SU3      -0.2737
     22 CAX        -8.1359   -6.2170   11.0065 C.3         1 SU3       0.1374
     23 CAY        -7.7800   -4.8754   10.5590 C.2         1 SU3       0.2444
     24 CAZ        -7.9934   -6.5326   12.5299 C.3         1 SU3      -0.0066
     25 CBA        -7.0399   -7.1744   11.5063 C.3         1 SU3      -0.0152
     26 CBB       -13.9562  -11.9862    6.6317 C.2         1 SU3       0.0383
     27 CBC       -14.8565  -12.9553    7.0505 C.ar        1 SU3      -0.0374
     28 CBD       -15.5660  -12.4334    8.1290 C.ar        1 SU3      -0.0293
     29 CBE       -15.0634  -11.1484    8.3295 C.2         1 SU3       0.0366
     30 CBF       -15.1120  -14.2467    6.5576 C.ar        1 SU3      -0.0689
     31 CBG       -16.1125  -15.0138    7.1823 C.ar        1 SU3      -0.0688
     32 CBH       -16.8401  -14.4907    8.2722 C.ar        1 SU3      -0.0606
     33 CBI       -16.5829  -13.1856    8.7716 C.ar        1 SU3      -0.0432
     34 CBJ       -17.3580  -12.6432    9.9174 C.3         1 SU3      -0.0194
     35 NBK        -6.7214   -4.6683    9.7928 N.am        1 SU3      -0.1552
     36 OBL        -8.5145   -3.9524   10.8845 O.2         1 SU3      -0.3404
     37 SBM        -6.2560   -3.1643    9.1793 S.o2        1 SU3       0.0645
     38 CBN        -6.4369   -1.7854   10.3443 C.3         1 SU3       0.1004
     39 OBO        -4.7216   -3.2633    8.7694 O.2         1 SU3      -0.1503
     40 OBP        -7.0543   -2.8725    7.8353 O.2         1 SU3      -0.1503
     41 CBQ        -5.2087   -1.2103   11.0600 C.3         1 SU3      -0.0268
     42 CBR        -5.8630   -0.4247    9.9109 C.3         1 SU3      -0.0268
     43 CBS       -16.5443  -12.6642   11.2404 C.3         1 SU3      -0.0433
     44 CBT       -17.3349  -12.1822   12.4893 C.3         1 SU3      -0.0507
     45 CBU       -17.5855  -10.6459   12.5371 C.3         1 SU3      -0.0453
     46 CBV       -18.3573  -10.0677   13.7825 C.3         1 SU3      -0.0072
     47 CBW       -18.4825   -8.5146   13.6242 C.3         1 SU3       0.0824
     48 CBX       -19.8065  -10.6562   13.8663 C.3         1 SU3      -0.0574
     49 CBY       -17.6019  -10.3771   15.1149 C.3         1 SU3      -0.0574
     50 CBZ       -13.1605   -4.2431   13.6120 C.3         1 SU3      -0.0558
     51 CCA       -14.1975   -3.2648   11.4982 C.3         1 SU3      -0.0558
     52 CD1       -13.7705   -6.5046    9.1900 C.3         1 SU3       0.0677
     53 OD2       -13.6612   -8.6795    8.1127 O.3         1 SU3      -0.2338
     54 H1        -11.6044   -8.2334   10.5003 H           1 SU3       0.0803
     55 H2        -11.0622   -8.2093    8.2084 H           1 SU3       0.0342
     56 H3        -11.1474   -6.4423    8.0912 H           1 SU3       0.0342
     57 H4        -13.2302   -6.9147    7.1122 H           1 SU3       0.0673
     58 H5        -15.2555   -5.5537   11.1119 H           1 SU3       0.0805
     59 H6        -15.0184   -6.8247   13.7275 H           1 SU3       0.1899
     60 H7         -6.2871   -5.5371   13.5035 H           1 SU3       0.0265
     61 H8         -7.7206   -4.5150   13.2901 H           1 SU3       0.0265
     62 H9         -7.3366   -5.0997   15.6841 H           1 SU3       0.0230
     63 H10        -7.4894   -6.8318   15.2930 H           1 SU3       0.0230
     64 H11        -8.8945   -5.7424   15.1041 H           1 SU3       0.0230
     65 H12       -15.5491   -2.8178   13.8132 H           1 SU3       0.0237
     66 H13       -15.7711   -4.4874   14.3784 H           1 SU3       0.0237
     67 H14       -16.5746   -3.9421   12.8875 H           1 SU3       0.0237
     68 H15        -9.1311   -7.6275    9.8807 H           1 SU3       0.1839
     69 H16        -8.7407   -7.2360   12.9231 H           1 SU3       0.0312
     70 H17        -6.0167   -6.7971   11.4873 H           1 SU3       0.0279
     71 H18        -7.2035   -8.2381   11.3366 H           1 SU3       0.0279
     72 H19       -13.3089  -12.0914    5.8462 H           1 SU3       0.0373
     73 H20       -15.3905  -10.4973    9.0478 H           1 SU3       0.0361
     74 H21       -14.5859  -14.6180    5.7640 H           1 SU3       0.0557
     75 H22       -16.3144  -15.9586    6.8414 H           1 SU3       0.0599
     76 H23       -17.5602  -15.0739    8.7050 H           1 SU3       0.0557
     77 H24       -18.2684  -13.2300   10.0660 H           1 SU3       0.0426
     78 H25       -17.6739  -11.6268    9.6780 H           1 SU3       0.0426
     79 H26        -6.1694   -5.4326    9.5676 H           1 SU3       0.2148
     80 H27        -7.3809   -1.6865   10.8835 H           1 SU3       0.0559
     81 H28        -4.2277   -1.6191   10.8133 H           1 SU3       0.0285
     82 H29        -5.3845   -0.7996   12.0584 H           1 SU3       0.0285
     83 H30        -6.4381    0.4586   10.2194 H           1 SU3       0.0285
     84 H31        -5.2891   -0.3958    8.9751 H           1 SU3       0.0285
     85 H32       -15.6416  -12.0580   11.1339 H           1 SU3       0.0287
     86 H33       -16.2239  -13.6946   11.4244 H           1 SU3       0.0287
     87 H34       -16.7545  -12.4700   13.3692 H           1 SU3       0.0267
     88 H35       -18.2834  -12.7215   12.5306 H           1 SU3       0.0267
     89 H36       -18.1346  -10.3632   11.6369 H           1 SU3       0.0271
     90 H37       -16.6072  -10.1615   12.4783 H           1 SU3       0.0271
     91 H38       -19.0441   -8.2756   12.7178 H           1 SU3       0.0617
     92 H39       -19.0392   -8.0896   14.4630 H           1 SU3       0.0617
     93 H40       -19.7872  -11.7286   14.0594 H           1 SU3       0.0236
     94 H41       -20.3472  -10.4862   12.9326 H           1 SU3       0.0236
     95 H42       -20.3701  -10.1859   14.6757 H           1 SU3       0.0236
     96 H43       -16.5599  -10.0540   15.0510 H           1 SU3       0.0236
     97 H44       -17.6143  -11.4448   15.3368 H           1 SU3       0.0236
     98 H45       -18.0675   -9.8584   15.9569 H           1 SU3       0.0236
     99 H46       -12.2265   -4.3637   13.0489 H           1 SU3       0.0237
    100 H47       -13.2206   -5.0322   14.3738 H           1 SU3       0.0237
    101 H48       -13.1192   -3.2710   14.1237 H           1 SU3       0.0237
    102 H49       -15.0908   -3.2154   10.8608 H           1 SU3       0.0237
    103 H50       -13.3422   -3.5391   10.8703 H           1 SU3       0.0237
    104 H51       -14.0162   -2.2654   11.9096 H           1 SU3       0.0237
    105 H52       -13.7544   -5.4479    8.9108 H           1 SU3       0.0553
    106 H53       -14.8095   -6.8323    9.2929 H           1 SU3       0.0553
@<TRIPOS>BOND
     1     1     3   2
     2     1     4   1
     3    21     1  am
     4     4     2   1
     5     2     7  am
     6     2    52   1
     7     4     5   1
     8     5     6   1
     9     6    52   1
    10     6    53   1
    11     7     8   2
    12     7     9   1
    13     9    10   1
    14     9    13   1
    15    10    11  am
    16    11    12   1
    17    11    14   2
    18    12    47   1
    19    13    20   1
    20    13    50   1
    21    13    51   1
    22    15    16   2
    23    15    17  am
    24    53    15   1
    25    17    26   1
    26    17    29   1
    27    18    19   1
    28    24    18   1
    29    22    21   1
    30    22    23   1
    31    22    24   1
    32    22    25   1
    33    23    35  am
    34    23    36   2
    35    24    25   1
    36    26    27   2
    37    27    28  ar
    38    27    30  ar
    39    28    29   2
    40    28    33  ar
    41    30    31  ar
    42    31    32  ar
    43    32    33  ar
    44    33    34   1
    45    34    43   1
    46    35    37  am
    47    37    38   1
    48    37    39   2
    49    37    40   2
    50    38    41   1
    51    38    42   1
    52    41    42   1
    53    43    44   1
    54    44    45   1
    55    45    46   1
    56    46    47   1
    57    46    48   1
    58    46    49   1
    59     4    54   1
    60     5    55   1
    61     5    56   1
    62     6    57   1
    63     9    58   1
    64    10    59   1
    65    18    60   1
    66    18    61   1
    67    19    62   1
    68    19    63   1
    69    19    64   1
    70    20    65   1
    71    20    66   1
    72    20    67   1
    73    21    68   1
    74    24    69   1
    75    25    70   1
    76    25    71   1
    77    26    72   1
    78    29    73   1
    79    30    74   1
    80    31    75   1
    81    32    76   1
    82    34    77   1
    83    34    78   1
    84    35    79   1
    85    38    80   1
    86    41    81   1
    87    41    82   1
    88    42    83   1
    89    42    84   1
    90    43    85   1
    91    43    86   1
    92    44    87   1
    93    44    88   1
    94    45    89   1
    95    45    90   1
    96    47    91   1
    97    47    92   1
    98    48    93   1
    99    48    94   1
   100    48    95   1
   101    49    96   1
   102    49    97   1
   103    49    98   1
   104    50    99   1
   105    50   100   1
   106    50   101   1
   107    51   102   1
   108    51   103   1
   109    51   104   1
   110    52   105   1
   111    52   106   1
@<TRIPOS>SUBSTRUCTURE
     1  SU3      1

