@<TRIPOS>MOLECULE
3su5_ligand_036
   106   111
SMALL
GAST_HUCK
****
This file was generated by PARSER (from files_GN.cpp)

@<TRIPOS>ATOM
      1 C         -11.4549   -6.0138   11.0818 C.2         1 SU3       0.2013
      2 N         -13.7320   -6.1035   10.3368 N.am        1 SU3      -0.2469
      3 O         -11.2790   -4.8046   10.9969 O.2         1 SU3      -0.3947
      4 CA        -12.4089   -6.6569   10.1742 C.3         1 SU3       0.1363
      5 CB        -12.0692   -6.4670    8.6747 C.3         1 SU3       0.0206
      6 CG        -12.9947   -5.3412    8.1779 C.3         1 SU3       0.1158
      7 CAF       -14.5541   -6.4419   11.3492 C.2         1 SU3       0.2070
      8 OAG       -14.2402   -7.4134   12.0276 O.2         1 SU3      -0.3942
      9 CAH       -15.8706   -5.8479   11.6294 C.3         1 SU3       0.1378
     10 NAI       -16.8669   -6.8070   11.2182 N.am        1 SU3      -0.2407
     11 CAJ       -17.8817   -6.5551   10.3539 C.2         1 SU3       0.3218
     12 OAK       -18.8356   -7.5098   10.1987 O.3         1 SU3      -0.2633
     13 CAL       -16.1096   -5.3025   13.1056 C.3         1 SU3       0.0025
     14 OAM       -18.0162   -5.3606    9.7296 O.2         1 SU3      -0.3774
     15 CAO       -13.0925   -5.7656    5.6671 C.2         1 SU3       0.4317
     16 OAP       -11.7787   -5.5071    5.4639 O.2         1 SU3      -0.3166
     17 NAQ       -13.8987   -6.1564    4.6455 N.am        1 SU3      -0.2080
     18 CAR        -7.5918   -7.3952   14.0385 C.3         1 SU3      -0.0516
     19 CAS        -6.4473   -8.3709   13.6999 C.3         1 SU3      -0.0651
     20 CAT       -17.6436   -5.2213   13.4188 C.3         1 SU3      -0.0558
     21 NAV       -10.8035   -6.7295   11.9930 N.am        1 SU3      -0.2737
     22 CAX        -9.8050   -6.2515   12.9141 C.3         1 SU3       0.1374
     23 CAY       -10.2393   -5.6437   14.1778 C.2         1 SU3       0.2444
     24 CAZ        -8.4930   -7.0849   12.8100 C.3         1 SU3      -0.0066
     25 CBA        -8.5363   -5.6471   12.2644 C.3         1 SU3      -0.0152
     26 CBB       -13.5551   -6.2981    3.3442 C.2         1 SU3       0.0383
     27 CBC       -14.6642   -6.7434    2.6311 C.ar        1 SU3      -0.0374
     28 CBD       -15.7109   -6.8863    3.5396 C.ar        1 SU3      -0.0293
     29 CBE       -15.2013   -6.4978    4.7748 C.2         1 SU3       0.0366
     30 CBF       -14.8414   -7.0385    1.2674 C.ar        1 SU3      -0.0689
     31 CBG       -16.1053   -7.4819    0.8338 C.ar        1 SU3      -0.0688
     32 CBH       -17.1653   -7.6379    1.7560 C.ar        1 SU3      -0.0606
     33 CBI       -16.9863   -7.3509    3.1334 C.ar        1 SU3      -0.0432
     34 CBJ       -18.0900   -7.5559    4.1137 C.3         1 SU3      -0.0194
     35 NBK       -11.4898   -5.2399   14.3454 N.am        1 SU3      -0.1552
     36 OBL        -9.4498   -5.4956   15.0986 O.2         1 SU3      -0.3404
     37 SBM       -12.1303   -4.6440   15.7957 S.o2        1 SU3       0.0645
     38 CBN       -13.0821   -5.8219   16.7818 C.3         1 SU3       0.1004
     39 OBO       -11.0072   -3.9411   16.6739 O.2         1 SU3      -0.1503
     40 OBP       -13.0685   -3.4135   15.4442 O.2         1 SU3      -0.1503
     41 CBQ       -12.7946   -7.3066   16.5194 C.3         1 SU3      -0.0268
     42 CBR       -12.3838   -6.6791   17.8535 C.3         1 SU3      -0.0268
     43 CBS       -17.8789   -8.8321    4.9764 C.3         1 SU3      -0.0433
     44 CBT       -19.0230   -9.1326    5.9854 C.3         1 SU3      -0.0507
     45 CBU       -19.0664   -8.1936    7.2295 C.3         1 SU3      -0.0453
     46 CBV       -20.1825   -8.4726    8.3083 C.3         1 SU3      -0.0072
     47 CBW       -20.0635   -7.4103    9.4554 C.3         1 SU3       0.0824
     48 CBX       -21.6103   -8.3293    7.6832 C.3         1 SU3      -0.0574
     49 CBY       -20.0365   -9.9001    8.9300 C.3         1 SU3      -0.0574
     50 CBZ       -15.4607   -6.1668   14.2413 C.3         1 SU3      -0.0558
     51 CCA       -15.5260   -3.8530   13.2192 C.3         1 SU3      -0.0558
     52 CD1       -14.0879   -5.2190    9.2657 C.3         1 SU3       0.0677
     53 OD2       -13.6129   -5.6531    6.9178 O.3         1 SU3      -0.2338
     54 H1        -12.4250   -7.7402   10.3596 H           1 SU3       0.0803
     55 H2        -12.2931   -7.3889    8.1310 H           1 SU3       0.0342
     56 H3        -11.0174   -6.2233    8.5032 H           1 SU3       0.0342
     57 H4        -12.4440   -4.3978    8.1050 H           1 SU3       0.0673
     58 H5        -15.9841   -4.9714   10.9925 H           1 SU3       0.0805
     59 H6        -16.8666   -7.6711   11.6625 H           1 SU3       0.1899
     60 H7         -7.1493   -6.4816   14.4432 H           1 SU3       0.0265
     61 H8         -8.2069   -7.8473   14.8189 H           1 SU3       0.0265
     62 H9         -5.8325   -8.5337   14.5877 H           1 SU3       0.0230
     63 H10        -5.8199   -7.9621   12.9059 H           1 SU3       0.0230
     64 H11        -6.8576   -9.3311   13.3776 H           1 SU3       0.0230
     65 H12       -17.8217   -4.7447   14.3787 H           1 SU3       0.0237
     66 H13       -18.0892   -6.2210   13.4553 H           1 SU3       0.0237
     67 H14       -18.1700   -4.6501   12.6497 H           1 SU3       0.0237
     68 H15       -10.9859   -7.6840   12.0144 H           1 SU3       0.1839
     69 H16        -8.5163   -7.8511   12.0280 H           1 SU3       0.0312
     70 H17        -7.9980   -4.8898   12.8389 H           1 SU3       0.0279
     71 H18        -8.5257   -5.5680   11.1746 H           1 SU3       0.0279
     72 H19       -12.6353   -6.1153    2.9355 H           1 SU3       0.0373
     73 H20       -15.7374   -6.4892    5.6460 H           1 SU3       0.0361
     74 H21       -14.0703   -6.9319    0.6043 H           1 SU3       0.0557
     75 H22       -16.2565   -7.6997   -0.1546 H           1 SU3       0.0599
     76 H23       -18.0678   -7.9753    1.4121 H           1 SU3       0.0557
     77 H24       -19.0462   -7.6479    3.5901 H           1 SU3       0.0426
     78 H25       -18.1619   -6.6728    4.7515 H           1 SU3       0.0426
     79 H26       -12.1087   -5.3551   13.6069 H           1 SU3       0.2148
     80 H27       -14.1350   -5.6029   16.9664 H           1 SU3       0.0559
     81 H28       -11.9590   -7.5695   15.8715 H           1 SU3       0.0285
     82 H29       -13.6714   -7.9490   16.5414 H           1 SU3       0.0285
     83 H30       -12.9846   -7.0005   18.7097 H           1 SU3       0.0285
     84 H31       -11.3096   -6.5245   17.9889 H           1 SU3       0.0285
     85 H32       -16.9344   -8.7657    5.5213 H           1 SU3       0.0287
     86 H33       -17.8016   -9.6869    4.2972 H           1 SU3       0.0287
     87 H34       -18.8852  -10.1588    6.3306 H           1 SU3       0.0267
     88 H35       -19.9731   -9.0886    5.4510 H           1 SU3       0.0267
     89 H36       -19.1843   -7.1671    6.8725 H           1 SU3       0.0271
     90 H37       -18.0885   -8.2493    7.7168 H           1 SU3       0.0271
     91 H38       -20.1947   -6.4064    9.0401 H           1 SU3       0.0617
     92 H39       -20.8686   -7.5575   10.1814 H           1 SU3       0.0617
     93 H40       -21.7971   -9.1023    6.9376 H           1 SU3       0.0236
     94 H41       -21.7242   -7.3554    7.2028 H           1 SU3       0.0236
     95 H42       -22.3820   -8.4214    8.4499 H           1 SU3       0.0236
     96 H43       -19.0221  -10.0584    9.3015 H           1 SU3       0.0236
     97 H44       -20.2552  -10.6749    8.1949 H           1 SU3       0.0236
     98 H45       -20.7290  -10.0325    9.7641 H           1 SU3       0.0236
     99 H46       -14.3678   -6.1374   14.1833 H           1 SU3       0.0237
    100 H47       -15.7866   -7.2097   14.1606 H           1 SU3       0.0237
    101 H48       -15.7297   -5.7959   15.2268 H           1 SU3       0.0237
    102 H49       -16.0404   -3.1709   12.5387 H           1 SU3       0.0237
    103 H50       -14.4628   -3.8474   12.9669 H           1 SU3       0.0237
    104 H51       -15.6463   -3.4643   14.2317 H           1 SU3       0.0237
    105 H52       -14.1510   -4.1888    9.6288 H           1 SU3       0.0553
    106 H53       -15.0611   -5.5047    8.8542 H           1 SU3       0.0553
@<TRIPOS>BOND
     1     1     3   2
     2     1     4   1
     3    21     1  am
     4     4     2   1
     5     2     7  am
     6     2    52   1
     7     4     5   1
     8     5     6   1
     9     6    52   1
    10     6    53   1
    11     7     8   2
    12     7     9   1
    13     9    10   1
    14     9    13   1
    15    10    11  am
    16    11    12   1
    17    11    14   2
    18    12    47   1
    19    13    20   1
    20    13    50   1
    21    13    51   1
    22    15    16   2
    23    15    17  am
    24    53    15   1
    25    17    26   1
    26    17    29   1
    27    18    19   1
    28    24    18   1
    29    22    21   1
    30    22    23   1
    31    22    24   1
    32    22    25   1
    33    23    35  am
    34    23    36   2
    35    24    25   1
    36    26    27   2
    37    27    28  ar
    38    27    30  ar
    39    28    29   2
    40    28    33  ar
    41    30    31  ar
    42    31    32  ar
    43    32    33  ar
    44    33    34   1
    45    34    43   1
    46    35    37  am
    47    37    38   1
    48    37    39   2
    49    37    40   2
    50    38    41   1
    51    38    42   1
    52    41    42   1
    53    43    44   1
    54    44    45   1
    55    45    46   1
    56    46    47   1
    57    46    48   1
    58    46    49   1
    59     4    54   1
    60     5    55   1
    61     5    56   1
    62     6    57   1
    63     9    58   1
    64    10    59   1
    65    18    60   1
    66    18    61   1
    67    19    62   1
    68    19    63   1
    69    19    64   1
    70    20    65   1
    71    20    66   1
    72    20    67   1
    73    21    68   1
    74    24    69   1
    75    25    70   1
    76    25    71   1
    77    26    72   1
    78    29    73   1
    79    30    74   1
    80    31    75   1
    81    32    76   1
    82    34    77   1
    83    34    78   1
    84    35    79   1
    85    38    80   1
    86    41    81   1
    87    41    82   1
    88    42    83   1
    89    42    84   1
    90    43    85   1
    91    43    86   1
    92    44    87   1
    93    44    88   1
    94    45    89   1
    95    45    90   1
    96    47    91   1
    97    47    92   1
    98    48    93   1
    99    48    94   1
   100    48    95   1
   101    49    96   1
   102    49    97   1
   103    49    98   1
   104    50    99   1
   105    50   100   1
   106    50   101   1
   107    51   102   1
   108    51   103   1
   109    51   104   1
   110    52   105   1
   111    52   106   1
@<TRIPOS>SUBSTRUCTURE
     1  SU3      1

