@<TRIPOS>MOLECULE
3su5_ligand_048
   106   111
SMALL
GAST_HUCK
****
This file was generated by PARSER (from files_GN.cpp)

@<TRIPOS>ATOM
      1 C         -13.3396   -5.8766   11.5177 C.2         1 SU3       0.2013
      2 N         -14.1303   -7.5688    9.9273 N.am        1 SU3      -0.2469
      3 O         -12.5966   -4.9054   11.4381 O.2         1 SU3      -0.3947
      4 CA        -14.2089   -6.1933   10.3772 C.3         1 SU3       0.1363
      5 CB        -15.6993   -5.9488   10.7345 C.3         1 SU3       0.0206
      6 CG        -16.4628   -7.0862   10.0408 C.3         1 SU3       0.1158
      7 CAF       -12.9868   -8.1457    9.5084 C.2         1 SU3       0.2070
      8 OAG       -12.0113   -7.4204    9.3477 O.2         1 SU3      -0.3942
      9 CAH       -12.7918   -9.5654    9.1733 C.3         1 SU3       0.1378
     10 NAI       -12.4462   -9.6388    7.7762 N.am        1 SU3      -0.2407
     11 CAJ       -13.1377  -10.2811    6.8084 C.2         1 SU3       0.3218
     12 OAK       -12.5828  -10.3350    5.5694 O.3         1 SU3      -0.2633
     13 CAL       -11.7453  -10.3452   10.0835 C.3         1 SU3       0.0025
     14 OAM       -14.3106  -10.9029    7.0590 O.2         1 SU3      -0.3774
     15 CAO       -17.8875   -5.8334    8.3833 C.2         1 SU3       0.4317
     16 OAP       -18.5191   -5.1314    9.3562 O.2         1 SU3      -0.3166
     17 NAQ       -18.2454   -5.6811    7.0850 N.am        1 SU3      -0.2080
     18 CAR       -13.1307   -5.5079   16.4113 C.3         1 SU3      -0.0516
     19 CAS       -13.2229   -3.9684   16.3448 C.3         1 SU3      -0.0651
     20 CAT       -12.3447  -10.5499   11.5138 C.3         1 SU3      -0.0558
     21 NAV       -13.3843   -6.6316   12.6118 N.am        1 SU3      -0.2737
     22 CAX       -12.6984   -6.4498   13.8577 C.3         1 SU3       0.1374
     23 CAY       -11.3356   -5.9420   13.8814 C.2         1 SU3       0.2444
     24 CAZ       -13.6021   -6.1801   15.0902 C.3         1 SU3      -0.0066
     25 CBA       -13.0145   -7.5775   14.8636 C.3         1 SU3      -0.0152
     26 CBB       -19.2066   -4.8519    6.6172 C.2         1 SU3       0.0383
     27 CBC       -19.3287   -5.0361    5.2455 C.ar        1 SU3      -0.0374
     28 CBD       -18.3946   -5.9998    4.8698 C.ar        1 SU3      -0.0293
     29 CBE       -17.7328   -6.3693    6.0373 C.2         1 SU3       0.0366
     30 CBF       -20.1980   -4.4549    4.3084 C.ar        1 SU3      -0.0689
     31 CBG       -20.1124   -4.8720    2.9660 C.ar        1 SU3      -0.0688
     32 CBH       -19.1702   -5.8512    2.5801 C.ar        1 SU3      -0.0606
     33 CBI       -18.2884   -6.4337    3.5254 C.ar        1 SU3      -0.0432
     34 CBJ       -17.2978   -7.4655    3.1159 C.3         1 SU3      -0.0194
     35 NBK       -10.2976   -6.7634   13.8459 N.am        1 SU3      -0.1552
     36 OBL       -11.1850   -4.7265   13.8884 O.2         1 SU3      -0.3404
     37 SBM        -8.6910   -6.2494   13.8582 S.o2        1 SU3       0.0645
     38 CBN        -7.6149   -7.7002   13.7935 C.3         1 SU3       0.1004
     39 OBO        -8.4276   -5.2849   12.6171 O.2         1 SU3      -0.1503
     40 OBP        -8.4427   -5.4850   15.2292 O.2         1 SU3      -0.1503
     41 CBQ        -7.3671   -8.3312   12.4149 C.3         1 SU3      -0.0268
     42 CBR        -6.2375   -7.5823   13.1352 C.3         1 SU3      -0.0268
     43 CBS       -15.8606   -6.8851    3.0103 C.3         1 SU3      -0.0433
     44 CBT       -14.7898   -7.9038    2.5254 C.3         1 SU3      -0.0507
     45 CBU       -14.4109   -8.9852    3.5801 C.3         1 SU3      -0.0453
     46 CBV       -13.2950  -10.0270    3.1909 C.3         1 SU3      -0.0072
     47 CBW       -13.0772  -11.0045    4.3989 C.3         1 SU3       0.0824
     48 CBX       -13.7398  -10.8781    1.9551 C.3         1 SU3      -0.0574
     49 CBY       -11.9393   -9.3220    2.8573 C.3         1 SU3      -0.0574
     50 CBZ       -11.4880  -11.7685    9.4733 C.3         1 SU3      -0.0558
     51 CCA       -10.3569   -9.6322   10.2202 C.3         1 SU3      -0.0558
     52 CD1       -15.4126   -8.2120    9.9488 C.3         1 SU3       0.0677
     53 OD2       -16.9256   -6.7338    8.7270 O.3         1 SU3      -0.2338
     54 H1        -13.9648   -5.5536    9.5128 H           1 SU3       0.0803
     55 H2        -16.0268   -4.9591   10.4066 H           1 SU3       0.0342
     56 H3        -15.8769   -6.0266   11.8125 H           1 SU3       0.0342
     57 H4        -17.3162   -7.4140   10.6405 H           1 SU3       0.0673
     58 H5        -13.7355  -10.0928    9.3212 H           1 SU3       0.0805
     59 H6        -11.6047   -9.2376    7.5150 H           1 SU3       0.1899
     60 H7        -13.7820   -5.8558   17.2205 H           1 SU3       0.0265
     61 H8        -12.1007   -5.7815   16.6622 H           1 SU3       0.0265
     62 H9        -12.9019   -3.5387   17.2951 H           1 SU3       0.0230
     63 H10       -14.2556   -3.6562   16.1489 H           1 SU3       0.0230
     64 H11       -12.5819   -3.5756   15.5550 H           1 SU3       0.0230
     65 H12       -11.6562  -11.1105   12.1478 H           1 SU3       0.0237
     66 H13       -13.2809  -11.1088   11.4663 H           1 SU3       0.0237
     67 H14       -12.5445   -9.5942   11.9946 H           1 SU3       0.0237
     68 H15       -14.0000   -7.3774   12.5726 H           1 SU3       0.1839
     69 H16       -14.6750   -6.1415   14.8901 H           1 SU3       0.0312
     70 H17       -12.2130   -7.8877   15.5391 H           1 SU3       0.0279
     71 H18       -13.7613   -8.3238   14.5786 H           1 SU3       0.0279
     72 H19       -19.7800   -4.2129    7.1728 H           1 SU3       0.0373
     73 H20       -16.9974   -7.0792    6.0923 H           1 SU3       0.0361
     74 H21       -20.8838   -3.7515    4.5953 H           1 SU3       0.0557
     75 H22       -20.7399   -4.4660    2.2680 H           1 SU3       0.0599
     76 H23       -19.1321   -6.1330    1.5984 H           1 SU3       0.0557
     77 H24       -17.5734   -7.8875    2.1457 H           1 SU3       0.0426
     78 H25       -17.3271   -8.2854    3.8362 H           1 SU3       0.0426
     79 H26       -10.4579   -7.7260   13.8611 H           1 SU3       0.2148
     80 H27        -7.6736   -8.4158   14.6149 H           1 SU3       0.0559
     81 H28        -7.7683   -7.8168   11.5375 H           1 SU3       0.0285
     82 H29        -7.2453   -9.4150   12.3850 H           1 SU3       0.0285
     83 H30        -5.4559   -8.2234   13.5396 H           1 SU3       0.0285
     84 H31        -5.9643   -6.6217   12.6929 H           1 SU3       0.0285
     85 H32       -15.5499   -6.4760    3.9747 H           1 SU3       0.0287
     86 H33       -15.8813   -6.0565    2.2958 H           1 SU3       0.0287
     87 H34       -13.8951   -7.3329    2.2687 H           1 SU3       0.0267
     88 H35       -15.1519   -8.3797    1.6119 H           1 SU3       0.0267
     89 H36       -15.3158   -9.5413    3.8341 H           1 SU3       0.0271
     90 H37       -14.0964   -8.4593    4.4855 H           1 SU3       0.0271
     91 H38       -14.0083  -11.5358    4.6154 H           1 SU3       0.0617
     92 H39       -12.3345  -11.7644    4.1341 H           1 SU3       0.0617
     93 H40       -13.8246  -10.2605    1.0589 H           1 SU3       0.0236
     94 H41       -14.7080  -11.3495    2.1389 H           1 SU3       0.0236
     95 H42       -13.0124  -11.6661    1.7436 H           1 SU3       0.0236
     96 H43       -11.6377   -8.6561    3.6685 H           1 SU3       0.0236
     97 H44       -12.0155   -8.7316    1.9427 H           1 SU3       0.0236
     98 H45       -11.1459  -10.0591    2.7084 H           1 SU3       0.0236
     99 H46       -10.9588  -11.6941    8.5147 H           1 SU3       0.0237
    100 H47       -12.4310  -12.2918    9.2946 H           1 SU3       0.0237
    101 H48       -10.8781  -12.3836   10.1350 H           1 SU3       0.0237
    102 H49       -10.4319   -8.7411   10.8433 H           1 SU3       0.0237
    103 H50        -9.9783   -9.3361    9.2415 H           1 SU3       0.0237
    104 H51        -9.6202  -10.2847   10.6832 H           1 SU3       0.0237
    105 H52       -15.4771   -8.8697   10.8212 H           1 SU3       0.0553
    106 H53       -15.5989   -8.7962    9.0421 H           1 SU3       0.0553
@<TRIPOS>BOND
     1     1     3   2
     2     1     4   1
     3    21     1  am
     4     4     2   1
     5     2     7  am
     6     2    52   1
     7     4     5   1
     8     5     6   1
     9     6    52   1
    10     6    53   1
    11     7     8   2
    12     7     9   1
    13     9    10   1
    14     9    13   1
    15    10    11  am
    16    11    12   1
    17    11    14   2
    18    12    47   1
    19    13    20   1
    20    13    50   1
    21    13    51   1
    22    15    16   2
    23    15    17  am
    24    53    15   1
    25    17    26   1
    26    17    29   1
    27    18    19   1
    28    24    18   1
    29    22    21   1
    30    22    23   1
    31    22    24   1
    32    22    25   1
    33    23    35  am
    34    23    36   2
    35    24    25   1
    36    26    27   2
    37    27    28  ar
    38    27    30  ar
    39    28    29   2
    40    28    33  ar
    41    30    31  ar
    42    31    32  ar
    43    32    33  ar
    44    33    34   1
    45    34    43   1
    46    35    37  am
    47    37    38   1
    48    37    39   2
    49    37    40   2
    50    38    41   1
    51    38    42   1
    52    41    42   1
    53    43    44   1
    54    44    45   1
    55    45    46   1
    56    46    47   1
    57    46    48   1
    58    46    49   1
    59     4    54   1
    60     5    55   1
    61     5    56   1
    62     6    57   1
    63     9    58   1
    64    10    59   1
    65    18    60   1
    66    18    61   1
    67    19    62   1
    68    19    63   1
    69    19    64   1
    70    20    65   1
    71    20    66   1
    72    20    67   1
    73    21    68   1
    74    24    69   1
    75    25    70   1
    76    25    71   1
    77    26    72   1
    78    29    73   1
    79    30    74   1
    80    31    75   1
    81    32    76   1
    82    34    77   1
    83    34    78   1
    84    35    79   1
    85    38    80   1
    86    41    81   1
    87    41    82   1
    88    42    83   1
    89    42    84   1
    90    43    85   1
    91    43    86   1
    92    44    87   1
    93    44    88   1
    94    45    89   1
    95    45    90   1
    96    47    91   1
    97    47    92   1
    98    48    93   1
    99    48    94   1
   100    48    95   1
   101    49    96   1
   102    49    97   1
   103    49    98   1
   104    50    99   1
   105    50   100   1
   106    50   101   1
   107    51   102   1
   108    51   103   1
   109    51   104   1
   110    52   105   1
   111    52   106   1
@<TRIPOS>SUBSTRUCTURE
     1  SU3      1

