@<TRIPOS>MOLECULE
3su5_ligand_030
   106   111
SMALL
GAST_HUCK
****
This file was generated by PARSER (from files_GN.cpp)

@<TRIPOS>ATOM
      1 C          -6.8886   -2.2549   10.5823 C.2         1 SU3       0.2013
      2 N          -6.2391    0.1265   10.1707 N.am        1 SU3      -0.2469
      3 O          -7.6257   -1.8654   11.4801 O.2         1 SU3      -0.3947
      4 CA         -6.0779   -1.2822    9.8392 C.3         1 SU3       0.1363
      5 CB         -4.5714   -1.5498   10.0596 C.3         1 SU3       0.0206
      6 CG         -3.9080   -0.1747    9.9190 C.3         1 SU3       0.1158
      7 CAF        -7.4130    0.7814   10.1071 C.2         1 SU3       0.2070
      8 OAG        -8.3431    0.1993    9.5594 O.2         1 SU3      -0.3942
      9 CAH        -7.7109    2.1350   10.6201 C.3         1 SU3       0.1378
     10 NAI        -8.3520    2.8622    9.5559 N.am        1 SU3      -0.2407
     11 CAJ        -7.8556    3.9226    8.8791 C.2         1 SU3       0.3218
     12 OAK        -8.6363    4.4315    7.8916 O.3         1 SU3      -0.2633
     13 CAL        -8.5645    2.1647   11.9655 C.3         1 SU3       0.0025
     14 OAM        -6.6359    4.4495    9.1471 O.2         1 SU3      -0.3774
     15 CAO        -2.6771   -0.3655    7.7252 C.2         1 SU3       0.4317
     16 OAP        -1.9005   -1.3837    8.1693 O.2         1 SU3      -0.3166
     17 NAQ        -2.5138    0.1332    6.4733 N.am        1 SU3      -0.2080
     18 CAR        -7.2890   -7.1686   11.8489 C.3         1 SU3      -0.0516
     19 CAS        -7.2999   -7.6007   13.3306 C.3         1 SU3      -0.0651
     20 CAT        -9.8131    1.2145   11.9367 C.3         1 SU3      -0.0558
     21 NAV        -6.8239   -3.5537   10.2863 N.am        1 SU3      -0.2737
     22 CAX        -7.6151   -4.6020   10.8751 C.3         1 SU3       0.1374
     23 CAY        -8.7978   -4.9987   10.1354 C.2         1 SU3       0.2444
     24 CAZ        -6.8328   -5.6953   11.6588 C.3         1 SU3      -0.0066
     25 CBA        -7.6771   -4.6654   12.4186 C.3         1 SU3      -0.0152
     26 CBB        -1.5989   -0.2806    5.5664 C.2         1 SU3       0.0383
     27 CBC        -1.7336    0.4791    4.4132 C.ar        1 SU3      -0.0374
     28 CBD        -2.7748    1.3806    4.6242 C.ar        1 SU3      -0.0293
     29 CBE        -3.2299    1.1406    5.9214 C.2         1 SU3       0.0366
     30 CBF        -1.0239    0.4563    3.1988 C.ar        1 SU3      -0.0689
     31 CBG        -1.3913    1.3672    2.1906 C.ar        1 SU3      -0.0688
     32 CBH        -2.4500    2.2783    2.3989 C.ar        1 SU3      -0.0606
     33 CBI        -3.1679    2.3013    3.6245 C.ar        1 SU3      -0.0432
     34 CBJ        -4.2925    3.2535    3.8346 C.3         1 SU3      -0.0194
     35 NBK        -8.7228   -5.9695    9.2361 N.am        1 SU3      -0.1552
     36 OBL        -9.8298   -4.3776   10.3454 O.2         1 SU3      -0.3404
     37 SBM        -9.9847   -6.5608    8.2814 S.o2        1 SU3       0.0645
     38 CBN        -9.5307   -6.7639    6.5440 C.3         1 SU3       0.1004
     39 OBO       -10.4886   -7.9554    8.8561 O.2         1 SU3      -0.1503
     40 OBP       -11.2382   -5.5801    8.2842 O.2         1 SU3      -0.1503
     41 CBQ        -8.7817   -5.6000    5.8764 C.3         1 SU3      -0.0268
     42 CBR        -8.0499   -6.9174    6.1713 C.3         1 SU3      -0.0268
     43 CBS        -5.6787    2.5542    3.7524 C.3         1 SU3      -0.0433
     44 CBT        -6.8943    3.5161    3.8700 C.3         1 SU3      -0.0507
     45 CBU        -7.1237    4.0974    5.2972 C.3         1 SU3      -0.0453
     46 CBV        -8.3449    5.0721    5.5023 C.3         1 SU3      -0.0072
     47 CBW        -8.3746    5.5300    7.0034 C.3         1 SU3       0.0824
     48 CBX        -8.1938    6.3482    4.6112 C.3         1 SU3      -0.0574
     49 CBY        -9.7000    4.3712    5.1583 C.3         1 SU3      -0.0574
     50 CBZ        -7.6614    1.7442   13.1741 C.3         1 SU3      -0.0558
     51 CCA        -9.0863    3.6126   12.2663 C.3         1 SU3      -0.0558
     52 CD1        -4.9921    0.7683   10.4664 C.3         1 SU3       0.0677
     53 OD2        -3.6124    0.1723    8.5558 O.3         1 SU3      -0.2338
     54 H1         -6.3123   -1.4011    8.7753 H           1 SU3       0.0803
     55 H2         -4.1816   -2.2713    9.3402 H           1 SU3       0.0342
     56 H3         -4.3849   -1.9202   11.0723 H           1 SU3       0.0342
     57 H4         -2.9972   -0.0987   10.5180 H           1 SU3       0.0673
     58 H5         -6.7785    2.6516   10.8531 H           1 SU3       0.0805
     59 H6         -9.2325    2.5507    9.2898 H           1 SU3       0.1899
     60 H7         -8.2869   -7.3365   11.4364 H           1 SU3       0.0265
     61 H8         -6.5902   -7.8056   11.3065 H           1 SU3       0.0265
     62 H9         -7.5412   -8.6634   13.4035 H           1 SU3       0.0230
     63 H10        -8.0539   -7.0383   13.8847 H           1 SU3       0.0230
     64 H11        -6.3228   -7.4297   13.7876 H           1 SU3       0.0230
     65 H12       -10.4251    1.3243   12.8374 H           1 SU3       0.0237
     66 H13        -9.5090    0.1674   11.8910 H           1 SU3       0.0237
     67 H14       -10.4399    1.4322   11.0682 H           1 SU3       0.0237
     68 H15        -6.2297   -3.8145    9.5626 H           1 SU3       0.1839
     69 H16        -5.7580   -5.5139   11.7513 H           1 SU3       0.0312
     70 H17        -8.6155   -5.0177   12.8535 H           1 SU3       0.0279
     71 H18        -7.0889   -3.9416   12.9808 H           1 SU3       0.0279
     72 H19        -0.9078   -1.0230    5.6978 H           1 SU3       0.0373
     73 H20        -3.9858    1.6560    6.3780 H           1 SU3       0.0361
     74 H21        -0.2580   -0.2049    3.0531 H           1 SU3       0.0557
     75 H22        -0.8892    1.3663    1.2984 H           1 SU3       0.0599
     76 H23        -2.6994    2.9203    1.6432 H           1 SU3       0.0557
     77 H24        -4.2611    4.0461    3.0818 H           1 SU3       0.0426
     78 H25        -4.1644    3.7344    4.8062 H           1 SU3       0.0426
     79 H26        -7.8823   -6.4497    9.1640 H           1 SU3       0.2148
     80 H27       -10.2356   -7.2760    5.8860 H           1 SU3       0.0559
     81 H28        -8.4963   -4.7554    6.5095 H           1 SU3       0.0285
     82 H29        -9.0122   -5.4231    4.8230 H           1 SU3       0.0285
     83 H30        -7.8363   -7.5335    5.2972 H           1 SU3       0.0285
     84 H31        -7.3177   -6.8715    6.9787 H           1 SU3       0.0285
     85 H32        -5.7575    1.7859    4.5253 H           1 SU3       0.0287
     86 H33        -5.7457    2.0492    2.7836 H           1 SU3       0.0287
     87 H34        -7.7820    2.9523    3.5758 H           1 SU3       0.0267
     88 H35        -6.7635    4.3261    3.1506 H           1 SU3       0.0267
     89 H36        -6.2154    4.6261    5.5955 H           1 SU3       0.0271
     90 H37        -7.2341    3.2477    5.9771 H           1 SU3       0.0271
     91 H38        -7.4345    6.0278    7.2619 H           1 SU3       0.0617
     92 H39        -9.1757    6.2566    7.1602 H           1 SU3       0.0617
     93 H40        -8.2582    6.1011    3.5511 H           1 SU3       0.0236
     94 H41        -7.2327    6.8341    4.7910 H           1 SU3       0.0236
     95 H42        -8.9849    7.0692    4.8271 H           1 SU3       0.0236
     96 H43        -9.8008    3.4299    5.7025 H           1 SU3       0.0236
     97 H44        -9.7732    4.1550    4.0917 H           1 SU3       0.0236
     98 H45       -10.5449    5.0100    5.4242 H           1 SU3       0.0236
     99 H46        -6.7897    2.3982   13.2575 H           1 SU3       0.0237
    100 H47        -7.3067    0.7191   13.0548 H           1 SU3       0.0237
    101 H48        -8.2106    1.8076   14.1173 H           1 SU3       0.0237
    102 H49        -9.7747    3.9509   11.4873 H           1 SU3       0.0237
    103 H50        -8.2551    4.3199   12.3204 H           1 SU3       0.0237
    104 H51        -9.6285    3.6521   13.2168 H           1 SU3       0.0237
    105 H52        -4.8913    0.9007   11.5483 H           1 SU3       0.0553
    106 H53        -4.8960    1.7398    9.9716 H           1 SU3       0.0553
@<TRIPOS>BOND
     1     1     3   2
     2     1     4   1
     3    21     1  am
     4     4     2   1
     5     2     7  am
     6     2    52   1
     7     4     5   1
     8     5     6   1
     9     6    52   1
    10     6    53   1
    11     7     8   2
    12     7     9   1
    13     9    10   1
    14     9    13   1
    15    10    11  am
    16    11    12   1
    17    11    14   2
    18    12    47   1
    19    13    20   1
    20    13    50   1
    21    13    51   1
    22    15    16   2
    23    15    17  am
    24    53    15   1
    25    17    26   1
    26    17    29   1
    27    18    19   1
    28    24    18   1
    29    22    21   1
    30    22    23   1
    31    22    24   1
    32    22    25   1
    33    23    35  am
    34    23    36   2
    35    24    25   1
    36    26    27   2
    37    27    28  ar
    38    27    30  ar
    39    28    29   2
    40    28    33  ar
    41    30    31  ar
    42    31    32  ar
    43    32    33  ar
    44    33    34   1
    45    34    43   1
    46    35    37  am
    47    37    38   1
    48    37    39   2
    49    37    40   2
    50    38    41   1
    51    38    42   1
    52    41    42   1
    53    43    44   1
    54    44    45   1
    55    45    46   1
    56    46    47   1
    57    46    48   1
    58    46    49   1
    59     4    54   1
    60     5    55   1
    61     5    56   1
    62     6    57   1
    63     9    58   1
    64    10    59   1
    65    18    60   1
    66    18    61   1
    67    19    62   1
    68    19    63   1
    69    19    64   1
    70    20    65   1
    71    20    66   1
    72    20    67   1
    73    21    68   1
    74    24    69   1
    75    25    70   1
    76    25    71   1
    77    26    72   1
    78    29    73   1
    79    30    74   1
    80    31    75   1
    81    32    76   1
    82    34    77   1
    83    34    78   1
    84    35    79   1
    85    38    80   1
    86    41    81   1
    87    41    82   1
    88    42    83   1
    89    42    84   1
    90    43    85   1
    91    43    86   1
    92    44    87   1
    93    44    88   1
    94    45    89   1
    95    45    90   1
    96    47    91   1
    97    47    92   1
    98    48    93   1
    99    48    94   1
   100    48    95   1
   101    49    96   1
   102    49    97   1
   103    49    98   1
   104    50    99   1
   105    50   100   1
   106    50   101   1
   107    51   102   1
   108    51   103   1
   109    51   104   1
   110    52   105   1
   111    52   106   1
@<TRIPOS>SUBSTRUCTURE
     1  SU3      1

