@<TRIPOS>MOLECULE
3su5_ligand_020
   106   111
SMALL
GAST_HUCK
****
This file was generated by PARSER (from files_GN.cpp)

@<TRIPOS>ATOM
      1 C          -7.5880   -3.1783   11.5554 C.2         1 SU3       0.2013
      2 N          -6.6318   -1.8350    9.7386 N.am        1 SU3      -0.2469
      3 O          -8.7637   -3.2609   11.2235 O.2         1 SU3      -0.3947
      4 CA         -6.8012   -2.0019   11.1665 C.3         1 SU3       0.1363
      5 CB         -7.4360   -0.6816   11.6686 C.3         1 SU3       0.0206
      6 CG         -7.0717    0.3549   10.5913 C.3         1 SU3       0.1158
      7 CAF        -6.1748   -2.8107    8.9250 C.2         1 SU3       0.2070
      8 OAG        -5.7224   -3.8243    9.4487 O.2         1 SU3      -0.3942
      9 CAH        -6.0958   -2.7813    7.4525 C.3         1 SU3       0.1378
     10 NAI        -4.7027   -2.9585    7.1248 N.am        1 SU3      -0.2407
     11 CAJ        -3.8604   -2.0424    6.5923 C.2         1 SU3       0.3218
     12 OAK        -2.5912   -2.4619    6.3478 O.3         1 SU3      -0.2633
     13 CAL        -7.0671   -3.7936    6.6676 C.3         1 SU3       0.0025
     14 OAM        -4.2488   -0.7774    6.3031 O.2         1 SU3      -0.3774
     15 CAO        -5.5545    1.9813   11.8036 C.2         1 SU3       0.4317
     16 OAP        -6.5318    2.4030   12.6414 O.2         1 SU3      -0.3166
     17 NAQ        -4.3076    2.5144   11.8623 N.am        1 SU3      -0.2080
     18 CAR        -8.1532   -7.9906   11.6808 C.3         1 SU3      -0.0516
     19 CAS        -7.3626   -9.2896   11.9461 C.3         1 SU3      -0.0651
     20 CAT        -6.3165   -4.6281    5.5713 C.3         1 SU3      -0.0558
     21 NAV        -7.0043   -4.2031   12.1632 N.am        1 SU3      -0.2737
     22 CAX        -7.6106   -5.4429   12.5419 C.3         1 SU3       0.1374
     23 CAY        -8.7817   -5.3744   13.3963 C.2         1 SU3       0.2444
     24 CAZ        -7.2617   -6.7166   11.7266 C.3         1 SU3      -0.0066
     25 CBA        -6.5378   -6.4319   13.0473 C.3         1 SU3      -0.0152
     26 CBB        -3.8839    3.4781   12.7101 C.2         1 SU3       0.0383
     27 CBC        -2.5408    3.7347   12.4630 C.ar        1 SU3      -0.0374
     28 CBD        -2.1455    2.9076   11.4132 C.ar        1 SU3      -0.0293
     29 CBE        -3.2712    2.1669   11.0639 C.2         1 SU3       0.0366
     30 CBF        -1.6358    4.6175   13.0740 C.ar        1 SU3      -0.0689
     31 CBG        -0.3089    4.6556   12.5976 C.ar        1 SU3      -0.0688
     32 CBH         0.0891    3.8303   11.5232 C.ar        1 SU3      -0.0606
     33 CBI        -0.8238    2.9371   10.9055 C.ar        1 SU3      -0.0432
     34 CBJ        -0.4085    2.0840    9.7584 C.3         1 SU3      -0.0194
     35 NBK        -9.9697   -5.5719   12.8502 N.am        1 SU3      -0.1552
     36 OBL        -8.6402   -5.0570   14.5719 O.2         1 SU3      -0.3404
     37 SBM       -11.4613   -5.5350   13.6372 S.o2        1 SU3       0.0645
     38 CBN       -11.4001   -5.6823   15.4420 C.3         1 SU3       0.1004
     39 OBO       -12.2851   -4.2616   13.1580 O.2         1 SU3      -0.1503
     40 OBP       -12.2285   -6.8331   13.1338 O.2         1 SU3      -0.1503
     41 CBQ       -11.8321   -4.4671   16.2766 C.3         1 SU3      -0.0268
     42 CBR       -12.7306   -5.7117   16.2097 C.3         1 SU3      -0.0268
     43 CBS        -0.2024    0.5982   10.1622 C.3         1 SU3      -0.0433
     44 CBT         0.3171   -0.3147    9.0152 C.3         1 SU3      -0.0507
     45 CBU        -0.7314   -0.6218    7.9033 C.3         1 SU3      -0.0453
     46 CBV        -0.2857   -1.5602    6.7184 C.3         1 SU3      -0.0072
     47 CBW        -1.5004   -1.7500    5.7426 C.3         1 SU3       0.0824
     48 CBX         0.8818   -0.9096    5.9054 C.3         1 SU3      -0.0574
     49 CBY         0.1724   -2.9626    7.2380 C.3         1 SU3      -0.0574
     50 CBZ        -7.7874   -4.8484    7.5840 C.3         1 SU3      -0.0558
     51 CCA        -8.1739   -2.9740    5.9189 C.3         1 SU3      -0.0558
     52 CD1        -6.9027   -0.4912    9.3129 C.3         1 SU3       0.0677
     53 OD2        -5.8367    1.0350   10.8663 O.3         1 SU3      -0.2338
     54 H1         -5.7941   -2.0695   11.5959 H           1 SU3       0.0803
     55 H2         -7.0545   -0.4016   12.6535 H           1 SU3       0.0342
     56 H3         -8.5261   -0.7474   11.7292 H           1 SU3       0.0342
     57 H4         -7.8683    1.0929   10.4563 H           1 SU3       0.0673
     58 H5         -6.3626   -1.7731    7.1310 H           1 SU3       0.0805
     59 H6         -4.3396   -3.8439    7.2685 H           1 SU3       0.1899
     60 H7         -8.9684   -7.9434   12.4075 H           1 SU3       0.0265
     61 H8         -8.5998   -8.0442   10.6859 H           1 SU3       0.0265
     62 H9         -7.9573  -10.1496   11.6300 H           1 SU3       0.0230
     63 H10        -7.1359   -9.3938   13.0111 H           1 SU3       0.0230
     64 H11        -6.4253   -9.2914   11.3931 H           1 SU3       0.0230
     65 H12        -7.0082   -5.2378    4.9829 H           1 SU3       0.0237
     66 H13        -5.5965   -5.3068    6.0351 H           1 SU3       0.0237
     67 H14        -5.7773   -3.9736    4.8823 H           1 SU3       0.0237
     68 H15        -6.0623   -4.1101   12.3483 H           1 SU3       0.1839
     69 H16        -6.6277   -6.5419   10.8530 H           1 SU3       0.0312
     70 H17        -6.7974   -7.0908   13.8811 H           1 SU3       0.0279
     71 H18        -5.4878   -6.1654   12.9118 H           1 SU3       0.0279
     72 H19        -4.4439    3.9473   13.4248 H           1 SU3       0.0373
     73 H20        -3.3009    1.4680   10.3168 H           1 SU3       0.0361
     74 H21        -1.9290    5.2163   13.8497 H           1 SU3       0.0557
     75 H22         0.3681    5.2886   13.0322 H           1 SU3       0.0599
     76 H23         1.0571    3.8845   11.1978 H           1 SU3       0.0557
     77 H24         0.5266    2.4586    9.3314 H           1 SU3       0.0426
     78 H25        -1.1664    2.1633    8.9759 H           1 SU3       0.0426
     79 H26        -9.9922   -5.7796   11.9035 H           1 SU3       0.2148
     80 H27       -10.6265   -6.3139   15.8840 H           1 SU3       0.0559
     81 H28       -12.2246   -3.5995   15.7444 H           1 SU3       0.0285
     82 H29       -11.3060   -4.3230   17.2218 H           1 SU3       0.0285
     83 H30       -12.7449   -6.3246   17.1152 H           1 SU3       0.0285
     84 H31       -13.6433   -5.6076   15.6162 H           1 SU3       0.0285
     85 H32        -1.1352    0.1858   10.5524 H           1 SU3       0.0287
     86 H33         0.5323    0.5657   10.9729 H           1 SU3       0.0287
     87 H34         0.6312   -1.2562    9.4693 H           1 SU3       0.0267
     88 H35         1.2013    0.1510    8.5772 H           1 SU3       0.0267
     89 H36        -1.0603    0.3292    7.4770 H           1 SU3       0.0271
     90 H37        -1.6032   -1.0649    8.3922 H           1 SU3       0.0271
     91 H38        -1.8341   -0.7785    5.3668 H           1 SU3       0.0617
     92 H39        -1.1923   -2.3375    4.8724 H           1 SU3       0.0617
     93 H40         1.7848   -0.8189    6.5096 H           1 SU3       0.0236
     94 H41         0.6027    0.0871    5.5570 H           1 SU3       0.0236
     95 H42         1.1315   -1.5162    5.0326 H           1 SU3       0.0236
     96 H43        -0.5887   -3.4112    7.8808 H           1 SU3       0.0236
     97 H44         1.0987   -2.8890    7.8090 H           1 SU3       0.0236
     98 H45         0.3547   -3.6420    6.4033 H           1 SU3       0.0236
     99 H46        -8.3682   -4.3572    8.3668 H           1 SU3       0.0237
    100 H47        -7.0629   -5.5117    8.0663 H           1 SU3       0.0237
    101 H48        -8.4788   -5.4749    7.0128 H           1 SU3       0.0237
    102 H49        -7.7231   -2.3157    5.1722 H           1 SU3       0.0237
    103 H50        -8.7352   -2.3523    6.6153 H           1 SU3       0.0237
    104 H51        -8.8819   -3.6270    5.4050 H           1 SU3       0.0237
    105 H52        -7.8102   -0.4666    8.7106 H           1 SU3       0.0553
    106 H53        -6.0798   -0.0883    8.7145 H           1 SU3       0.0553
@<TRIPOS>BOND
     1     1     3   2
     2     1     4   1
     3    21     1  am
     4     4     2   1
     5     2     7  am
     6     2    52   1
     7     4     5   1
     8     5     6   1
     9     6    52   1
    10     6    53   1
    11     7     8   2
    12     7     9   1
    13     9    10   1
    14     9    13   1
    15    10    11  am
    16    11    12   1
    17    11    14   2
    18    12    47   1
    19    13    20   1
    20    13    50   1
    21    13    51   1
    22    15    16   2
    23    15    17  am
    24    53    15   1
    25    17    26   1
    26    17    29   1
    27    18    19   1
    28    24    18   1
    29    22    21   1
    30    22    23   1
    31    22    24   1
    32    22    25   1
    33    23    35  am
    34    23    36   2
    35    24    25   1
    36    26    27   2
    37    27    28  ar
    38    27    30  ar
    39    28    29   2
    40    28    33  ar
    41    30    31  ar
    42    31    32  ar
    43    32    33  ar
    44    33    34   1
    45    34    43   1
    46    35    37  am
    47    37    38   1
    48    37    39   2
    49    37    40   2
    50    38    41   1
    51    38    42   1
    52    41    42   1
    53    43    44   1
    54    44    45   1
    55    45    46   1
    56    46    47   1
    57    46    48   1
    58    46    49   1
    59     4    54   1
    60     5    55   1
    61     5    56   1
    62     6    57   1
    63     9    58   1
    64    10    59   1
    65    18    60   1
    66    18    61   1
    67    19    62   1
    68    19    63   1
    69    19    64   1
    70    20    65   1
    71    20    66   1
    72    20    67   1
    73    21    68   1
    74    24    69   1
    75    25    70   1
    76    25    71   1
    77    26    72   1
    78    29    73   1
    79    30    74   1
    80    31    75   1
    81    32    76   1
    82    34    77   1
    83    34    78   1
    84    35    79   1
    85    38    80   1
    86    41    81   1
    87    41    82   1
    88    42    83   1
    89    42    84   1
    90    43    85   1
    91    43    86   1
    92    44    87   1
    93    44    88   1
    94    45    89   1
    95    45    90   1
    96    47    91   1
    97    47    92   1
    98    48    93   1
    99    48    94   1
   100    48    95   1
   101    49    96   1
   102    49    97   1
   103    49    98   1
   104    50    99   1
   105    50   100   1
   106    50   101   1
   107    51   102   1
   108    51   103   1
   109    51   104   1
   110    52   105   1
   111    52   106   1
@<TRIPOS>SUBSTRUCTURE
     1  SU3      1

