@<TRIPOS>MOLECULE
3su5_ligand_045
   106   111
SMALL
GAST_HUCK
****
This file was generated by PARSER (from files_GN.cpp)

@<TRIPOS>ATOM
      1 C         -17.1972  -11.5320   15.3341 C.2         1 SU3       0.2013
      2 N         -18.6308  -12.5314   17.1109 N.am        1 SU3      -0.2469
      3 O         -16.2457  -12.2343   15.6693 O.2         1 SU3      -0.3947
      4 CA        -18.5370  -11.7228   15.9070 C.3         1 SU3       0.1363
      5 CB        -19.1530  -10.3513   16.3008 C.3         1 SU3       0.0206
      6 CG        -20.0432  -10.6483   17.5191 C.3         1 SU3       0.1158
      7 CAF       -18.2153  -13.8126   17.1870 C.2         1 SU3       0.2070
      8 OAG       -17.8807  -14.3710   16.1502 O.2         1 SU3      -0.3942
      9 CAH       -18.1319  -14.6262   18.4114 C.3         1 SU3       0.1378
     10 NAI       -18.9803  -15.7711   18.2305 N.am        1 SU3      -0.2407
     11 CAJ       -20.0237  -16.1436   18.9992 C.2         1 SU3       0.3218
     12 OAK       -20.6337  -17.3079   18.6604 O.3         1 SU3      -0.2633
     13 CAL       -16.6763  -15.0732   18.8517 C.3         1 SU3       0.0025
     14 OAM       -20.4287  -15.4263   20.0729 O.2         1 SU3      -0.3774
     15 CAO       -22.4019  -10.2723   16.6869 C.2         1 SU3       0.4317
     16 OAP       -22.1891   -8.9586   16.4266 O.2         1 SU3      -0.3166
     17 NAQ       -23.6449  -10.8028   16.5159 N.am        1 SU3      -0.2080
     18 CAR       -13.1768  -11.2724   13.5932 C.3         1 SU3      -0.0516
     19 CAS       -12.5586  -11.9146   12.3264 C.3         1 SU3      -0.0651
     20 CAT       -16.0661  -16.2028   17.9533 C.3         1 SU3      -0.0558
     21 NAV       -16.9793  -10.5904   14.4274 N.am        1 SU3      -0.2737
     22 CAX       -15.6948  -10.2667   13.8892 C.3         1 SU3       0.1374
     23 CAY       -15.2294   -8.9048   14.0864 C.2         1 SU3       0.2444
     24 CAZ       -14.7207  -11.4385   13.6154 C.3         1 SU3      -0.0066
     25 CBA       -15.5018  -10.8219   12.4535 C.3         1 SU3      -0.0152
     26 CBB       -24.7287  -10.1393   16.0528 C.2         1 SU3       0.0383
     27 CBC       -25.8210  -10.9992   16.0604 C.ar        1 SU3      -0.0374
     28 CBD       -25.3811  -12.2288   16.5460 C.ar        1 SU3      -0.0293
     29 CBE       -24.0186  -12.0685   16.8147 C.2         1 SU3       0.0366
     30 CBF       -27.1600  -10.7955   15.6889 C.ar        1 SU3      -0.0689
     31 CBG       -28.0637  -11.8692   15.8219 C.ar        1 SU3      -0.0688
     32 CBH       -27.6253  -13.1136   16.3219 C.ar        1 SU3      -0.0606
     33 CBI       -26.2698  -13.3190   16.6945 C.ar        1 SU3      -0.0432
     34 CBJ       -25.8223  -14.6339   17.2271 C.3         1 SU3      -0.0194
     35 NBK       -14.3420   -8.6345   15.0283 N.am        1 SU3      -0.1552
     36 OBL       -15.7232   -8.0141   13.3922 O.2         1 SU3      -0.3404
     37 SBM       -13.7178   -7.0932   15.3262 S.o2        1 SU3       0.0645
     38 CBN       -12.3970   -7.1235   16.5586 C.3         1 SU3       0.1004
     39 OBO       -13.0650   -6.5402   13.9828 O.2         1 SU3      -0.1503
     40 OBP       -14.8960   -6.1309   15.7969 O.2         1 SU3      -0.1503
     41 CBQ       -12.0592   -5.7771   17.2205 C.3         1 SU3      -0.0268
     42 CBR       -12.7379   -6.8826   18.0365 C.3         1 SU3      -0.0268
     43 CBS       -25.0284  -15.4552   16.1730 C.3         1 SU3      -0.0433
     44 CBT       -24.5863  -16.8630   16.6585 C.3         1 SU3      -0.0507
     45 CBU       -23.4405  -16.8430   17.7147 C.3         1 SU3      -0.0453
     46 CBV       -22.9079  -18.2265   18.2440 C.3         1 SU3      -0.0072
     47 CBW       -21.7554  -17.9596   19.2756 C.3         1 SU3       0.0824
     48 CBX       -24.0410  -19.0132   18.9814 C.3         1 SU3      -0.0574
     49 CBY       -22.3514  -19.1103   17.0791 C.3         1 SU3      -0.0574
     50 CBZ       -15.7049  -13.8470   18.8306 C.3         1 SU3      -0.0558
     51 CCA       -16.7089  -15.6126   20.3262 C.3         1 SU3      -0.0558
     52 CD1       -19.3081  -11.8365   18.1684 C.3         1 SU3       0.0677
     53 OD2       -21.3888  -11.0383   17.1814 O.3         1 SU3      -0.2338
     54 H1        -19.1720  -12.1787   15.1316 H           1 SU3       0.0803
     55 H2        -19.7165   -9.9038   15.4735 H           1 SU3       0.0342
     56 H3        -18.3744   -9.6399   16.6140 H           1 SU3       0.0342
     57 H4        -20.0751   -9.7976   18.2065 H           1 SU3       0.0673
     58 H5        -18.5055  -14.0420   19.2506 H           1 SU3       0.0805
     59 H6        -18.7655  -16.3573   17.4894 H           1 SU3       0.1899
     60 H7        -12.8776  -10.2145   13.6255 H           1 SU3       0.0265
     61 H8        -12.7530  -11.7672   14.4755 H           1 SU3       0.0265
     62 H9        -11.4637  -11.8486   12.3638 H           1 SU3       0.0230
     63 H10       -12.9071  -11.3898   11.4292 H           1 SU3       0.0230
     64 H11       -12.8420  -12.9726   12.2519 H           1 SU3       0.0230
     65 H12       -15.0879  -16.5145   18.3280 H           1 SU3       0.0237
     66 H13       -15.9232  -15.8631   16.9283 H           1 SU3       0.0237
     67 H14       -16.7121  -17.0816   17.9383 H           1 SU3       0.0237
     68 H15       -17.7304  -10.0595   14.1221 H           1 SU3       0.1839
     69 H16       -15.1063  -12.3810   14.0111 H           1 SU3       0.0312
     70 H17       -14.9031  -10.2309   11.7484 H           1 SU3       0.0279
     71 H18       -16.2856  -11.4702   12.0536 H           1 SU3       0.0279
     72 H19       -24.7646   -9.1615   15.7552 H           1 SU3       0.0373
     73 H20       -23.4121  -12.7942   17.2006 H           1 SU3       0.0361
     74 H21       -27.4753   -9.8900   15.3335 H           1 SU3       0.0557
     75 H22       -29.0447  -11.7427   15.5596 H           1 SU3       0.0599
     76 H23       -28.3050  -13.8729   16.4094 H           1 SU3       0.0557
     77 H24       -26.6845  -15.2276   17.5458 H           1 SU3       0.0426
     78 H25       -25.2136  -14.4582   18.1162 H           1 SU3       0.0426
     79 H26       -14.0070   -9.3678   15.5823 H           1 SU3       0.2148
     80 H27       -11.5277   -7.7598   16.3689 H           1 SU3       0.0559
     81 H28       -12.6999   -4.9191   17.0010 H           1 SU3       0.0285
     82 H29       -11.0112   -5.6069   17.4697 H           1 SU3       0.0285
     83 H30       -12.0917   -7.3555   18.7774 H           1 SU3       0.0285
     84 H31       -13.7881   -6.7027   18.2786 H           1 SU3       0.0285
     85 H32       -24.1466  -14.8958   15.8500 H           1 SU3       0.0287
     86 H33       -25.6695  -15.5893   15.2957 H           1 SU3       0.0287
     87 H34       -24.2445  -17.4152   15.7805 H           1 SU3       0.0267
     88 H35       -25.4580  -17.3838   17.0587 H           1 SU3       0.0267
     89 H36       -23.7828  -16.2643   18.5751 H           1 SU3       0.0271
     90 H37       -22.6068  -16.2915   17.2722 H           1 SU3       0.0271
     91 H38       -22.1348  -17.3698   20.1152 H           1 SU3       0.0617
     92 H39       -21.3894  -18.9064   19.6828 H           1 SU3       0.0617
     93 H40       -24.8356  -19.3039   18.2916 H           1 SU3       0.0236
     94 H41       -24.4823  -18.4038   19.7737 H           1 SU3       0.0236
     95 H42       -23.6487  -19.9270   19.4345 H           1 SU3       0.0236
     96 H43       -21.6122  -18.5603   16.4929 H           1 SU3       0.0236
     97 H44       -23.1504  -19.4270   16.4063 H           1 SU3       0.0236
     98 H45       -21.8733  -20.0116   17.4702 H           1 SU3       0.0236
     99 H46       -16.0933  -13.0271   19.4403 H           1 SU3       0.0237
    100 H47       -15.5629  -13.4777   17.8156 H           1 SU3       0.0237
    101 H48       -14.7212  -14.1211   19.2131 H           1 SU3       0.0237
    102 H49       -17.3630  -16.4821   20.4115 H           1 SU3       0.0237
    103 H50       -17.0702  -14.8470   21.0169 H           1 SU3       0.0237
    104 H51       -15.7133  -15.9171   20.6599 H           1 SU3       0.0237
    105 H52       -18.5779  -11.4885   18.9031 H           1 SU3       0.0553
    106 H53       -20.0428  -12.4708   18.6712 H           1 SU3       0.0553
@<TRIPOS>BOND
     1     1     3   2
     2     1     4   1
     3    21     1  am
     4     4     2   1
     5     2     7  am
     6     2    52   1
     7     4     5   1
     8     5     6   1
     9     6    52   1
    10     6    53   1
    11     7     8   2
    12     7     9   1
    13     9    10   1
    14     9    13   1
    15    10    11  am
    16    11    12   1
    17    11    14   2
    18    12    47   1
    19    13    20   1
    20    13    50   1
    21    13    51   1
    22    15    16   2
    23    15    17  am
    24    53    15   1
    25    17    26   1
    26    17    29   1
    27    18    19   1
    28    24    18   1
    29    22    21   1
    30    22    23   1
    31    22    24   1
    32    22    25   1
    33    23    35  am
    34    23    36   2
    35    24    25   1
    36    26    27   2
    37    27    28  ar
    38    27    30  ar
    39    28    29   2
    40    28    33  ar
    41    30    31  ar
    42    31    32  ar
    43    32    33  ar
    44    33    34   1
    45    34    43   1
    46    35    37  am
    47    37    38   1
    48    37    39   2
    49    37    40   2
    50    38    41   1
    51    38    42   1
    52    41    42   1
    53    43    44   1
    54    44    45   1
    55    45    46   1
    56    46    47   1
    57    46    48   1
    58    46    49   1
    59     4    54   1
    60     5    55   1
    61     5    56   1
    62     6    57   1
    63     9    58   1
    64    10    59   1
    65    18    60   1
    66    18    61   1
    67    19    62   1
    68    19    63   1
    69    19    64   1
    70    20    65   1
    71    20    66   1
    72    20    67   1
    73    21    68   1
    74    24    69   1
    75    25    70   1
    76    25    71   1
    77    26    72   1
    78    29    73   1
    79    30    74   1
    80    31    75   1
    81    32    76   1
    82    34    77   1
    83    34    78   1
    84    35    79   1
    85    38    80   1
    86    41    81   1
    87    41    82   1
    88    42    83   1
    89    42    84   1
    90    43    85   1
    91    43    86   1
    92    44    87   1
    93    44    88   1
    94    45    89   1
    95    45    90   1
    96    47    91   1
    97    47    92   1
    98    48    93   1
    99    48    94   1
   100    48    95   1
   101    49    96   1
   102    49    97   1
   103    49    98   1
   104    50    99   1
   105    50   100   1
   106    50   101   1
   107    51   102   1
   108    51   103   1
   109    51   104   1
   110    52   105   1
   111    52   106   1
@<TRIPOS>SUBSTRUCTURE
     1  SU3      1

