@<TRIPOS>MOLECULE
3su5_ligand_085
   106   111
SMALL
GAST_HUCK
****
This file was generated by PARSER (from files_GN.cpp)

@<TRIPOS>ATOM
      1 C         -14.8342   -5.8347   11.2008 C.2         1 SU3       0.2013
      2 N         -12.9095   -6.2977    9.8568 N.am        1 SU3      -0.2469
      3 O         -15.3997   -6.8891   11.4709 O.2         1 SU3      -0.3947
      4 CA        -14.2050   -5.6590    9.8927 C.3         1 SU3       0.1363
      5 CB        -14.9900   -6.3052    8.7267 C.3         1 SU3       0.0206
      6 CG        -14.3907   -7.7157    8.6133 C.3         1 SU3       0.1158
      7 CAF       -11.8032   -5.7728   10.4247 C.2         1 SU3       0.2070
      8 OAG       -11.8869   -4.6476   10.9022 O.2         1 SU3      -0.3942
      9 CAH       -10.4762   -6.4108   10.4427 C.3         1 SU3       0.1378
     10 NAI        -9.8700   -6.1338    9.1699 N.am        1 SU3      -0.2407
     11 CAJ        -9.3981   -7.0430    8.2855 C.2         1 SU3       0.3218
     12 OAK        -8.6701   -6.5625    7.2446 O.3         1 SU3      -0.2633
     13 CAL        -9.4765   -6.0663   11.6339 C.3         1 SU3       0.0025
     14 OAM        -9.5317   -8.3764    8.4877 O.2         1 SU3      -0.3774
     15 CAO       -15.4740   -8.6113    6.5108 C.2         1 SU3       0.4317
     16 OAP       -16.7226   -8.6280    7.0355 O.2         1 SU3      -0.3166
     17 NAQ       -15.2539   -8.9341    5.2106 N.am        1 SU3      -0.2080
     18 CAR       -15.3606   -3.3208   15.6480 C.3         1 SU3      -0.0516
     19 CAS       -16.4973   -2.4327   16.1990 C.3         1 SU3      -0.0651
     20 CAT        -8.8640   -4.6295   11.5475 C.3         1 SU3      -0.0558
     21 NAV       -14.7100   -4.8876   12.1201 N.am        1 SU3      -0.2737
     22 CAX       -15.2479   -4.9366   13.4481 C.3         1 SU3       0.1374
     23 CAY       -14.9116   -6.0768   14.2932 C.2         1 SU3       0.2444
     24 CAZ       -15.4379   -3.5451   14.1120 C.3         1 SU3      -0.0066
     25 CBA       -16.6521   -4.3064   13.5544 C.3         1 SU3      -0.0152
     26 CBB       -16.1726   -9.3185    4.2948 C.2         1 SU3       0.0383
     27 CBC       -15.5382   -9.4834    3.0661 C.ar        1 SU3      -0.0374
     28 CBD       -14.1912   -9.1829    3.2546 C.ar        1 SU3      -0.0293
     29 CBE       -14.0489   -8.8714    4.6024 C.2         1 SU3       0.0366
     30 CBF       -16.0228   -9.8569    1.8017 C.ar        1 SU3      -0.0689
     31 CBG       -15.1145   -9.9208    0.7252 C.ar        1 SU3      -0.0688
     32 CBH       -13.7510   -9.6023    0.9167 C.ar        1 SU3      -0.0606
     33 CBI       -13.2608   -9.2148    2.1904 C.ar        1 SU3      -0.0432
     34 CBJ       -11.8329   -8.8492    2.4043 C.3         1 SU3      -0.0194
     35 NBK       -13.6785   -6.5538   14.2459 N.am        1 SU3      -0.1552
     36 OBL       -15.7706   -6.6135   14.9810 O.2         1 SU3      -0.3404
     37 SBM       -13.0894   -7.8409   15.1629 S.o2        1 SU3       0.0645
     38 CBN       -12.1319   -7.3666   16.6215 C.3         1 SU3       0.1004
     39 OBO       -14.2559   -8.8447   15.5624 O.2         1 SU3      -0.1503
     40 OBP       -12.2147   -8.7630   14.2097 O.2         1 SU3      -0.1503
     41 CBQ       -12.0061   -5.8819   16.9995 C.3         1 SU3      -0.0268
     42 CBR       -12.9390   -6.7976   17.7983 C.3         1 SU3      -0.0268
     43 CBS       -11.6340   -7.3212    2.6274 C.3         1 SU3      -0.0433
     44 CBT       -10.1725   -6.8981    2.9462 C.3         1 SU3      -0.0507
     45 CBU        -9.6949   -7.2319    4.3945 C.3         1 SU3      -0.0453
     46 CBV        -8.2203   -6.8344    4.7814 C.3         1 SU3      -0.0072
     47 CBW        -7.9302   -7.2949    6.2533 C.3         1 SU3       0.0824
     48 CBX        -7.1888   -7.5505    3.8466 C.3         1 SU3      -0.0574
     49 CBY        -7.9982   -5.2897    4.6833 C.3         1 SU3      -0.0574
     50 CBZ       -10.1867   -6.2159   13.0187 C.3         1 SU3      -0.0558
     51 CCA        -8.2793   -7.0805   11.6180 C.3         1 SU3      -0.0558
     52 CD1       -12.9377   -7.5153    9.0929 C.3         1 SU3       0.0677
     53 OD2       -14.4195   -8.2160    7.2733 O.3         1 SU3      -0.2338
     54 H1        -14.1172   -4.5895    9.6646 H           1 SU3       0.0803
     55 H2        -14.7992   -5.7491    7.8025 H           1 SU3       0.0342
     56 H3        -16.0703   -6.3316    8.8971 H           1 SU3       0.0342
     57 H4        -14.9101   -8.4101    9.2819 H           1 SU3       0.0673
     58 H5        -10.6664   -7.4822   10.5414 H           1 SU3       0.0805
     59 H6         -9.7112   -5.2007    8.9568 H           1 SU3       0.1899
     60 H7        -15.3750   -4.2652   16.1915 H           1 SU3       0.0265
     61 H8        -14.4063   -2.8361   15.8649 H           1 SU3       0.0265
     62 H9        -16.4190   -2.3782   17.2840 H           1 SU3       0.0230
     63 H10       -17.4746   -2.8485   15.9551 H           1 SU3       0.0230
     64 H11       -16.4279   -1.4235   15.7949 H           1 SU3       0.0230
     65 H12        -8.1535   -4.4600   12.3588 H           1 SU3       0.0237
     66 H13        -9.6290   -3.8612   11.6223 H           1 SU3       0.0237
     67 H14        -8.3316   -4.4889   10.6073 H           1 SU3       0.0237
     68 H15       -14.2188   -4.0871   11.8727 H           1 SU3       0.1839
     69 H16       -15.1524   -2.6895   13.4918 H           1 SU3       0.0312
     70 H17       -17.3421   -4.7273   14.2869 H           1 SU3       0.0279
     71 H18       -17.0673   -3.9058   12.6287 H           1 SU3       0.0279
     72 H19       -17.1736   -9.4495    4.4586 H           1 SU3       0.0373
     73 H20       -13.1665   -8.6088    5.0479 H           1 SU3       0.0361
     74 H21       -17.0115  -10.0771    1.6645 H           1 SU3       0.0557
     75 H22       -15.4472  -10.1932   -0.2024 H           1 SU3       0.0599
     76 H23       -13.1190   -9.6460    0.1140 H           1 SU3       0.0557
     77 H24       -11.2314   -9.1502    1.5424 H           1 SU3       0.0426
     78 H25       -11.4601   -9.4120    3.2618 H           1 SU3       0.0426
     79 H26       -13.0490   -6.1162   13.6515 H           1 SU3       0.2148
     80 H27       -11.3034   -8.0083   16.9241 H           1 SU3       0.0559
     81 H28       -12.5147   -5.1491   16.3709 H           1 SU3       0.0285
     82 H29       -11.1084   -5.5813   17.5419 H           1 SU3       0.0285
     83 H30       -12.5845   -7.0628   18.7967 H           1 SU3       0.0285
     84 H31       -14.0044   -6.6157   17.6425 H           1 SU3       0.0285
     85 H32       -12.2817   -6.9603    3.4288 H           1 SU3       0.0287
     86 H33       -11.9423   -6.8085    1.7112 H           1 SU3       0.0287
     87 H34       -10.1088   -5.8174    2.8020 H           1 SU3       0.0267
     88 H35        -9.5148   -7.3684    2.2136 H           1 SU3       0.0267
     89 H36        -9.8068   -8.3078    4.5456 H           1 SU3       0.0271
     90 H37       -10.3812   -6.7416    5.0910 H           1 SU3       0.0271
     91 H38        -8.1025   -8.3706    6.3507 H           1 SU3       0.0617
     92 H39        -6.8776   -7.1203    6.4888 H           1 SU3       0.0617
     93 H40        -7.2679   -7.1941    2.8185 H           1 SU3       0.0236
     94 H41        -7.3505   -8.6309    3.8479 H           1 SU3       0.0236
     95 H42        -6.1645   -7.3602    4.1764 H           1 SU3       0.0236
     96 H43        -8.7447   -4.7512    5.2709 H           1 SU3       0.0236
     97 H44        -8.0663   -4.9440    3.6506 H           1 SU3       0.0236
     98 H45        -7.0088   -5.0166    5.0577 H           1 SU3       0.0236
     99 H46       -10.6108   -7.2115   13.1095 H           1 SU3       0.0237
    100 H47       -10.9894   -5.4908   13.1401 H           1 SU3       0.0237
    101 H48        -9.4918   -6.0704   13.8471 H           1 SU3       0.0237
    102 H49        -7.6931   -6.9758   10.7045 H           1 SU3       0.0237
    103 H50        -8.6326   -8.1125   11.6767 H           1 SU3       0.0237
    104 H51        -7.6053   -6.9136   12.4614 H           1 SU3       0.0237
    105 H52       -12.6314   -8.3730    9.6958 H           1 SU3       0.0553
    106 H53       -12.2707   -7.4242    8.2320 H           1 SU3       0.0553
@<TRIPOS>BOND
     1     1     3   2
     2     1     4   1
     3    21     1  am
     4     4     2   1
     5     2     7  am
     6     2    52   1
     7     4     5   1
     8     5     6   1
     9     6    52   1
    10     6    53   1
    11     7     8   2
    12     7     9   1
    13     9    10   1
    14     9    13   1
    15    10    11  am
    16    11    12   1
    17    11    14   2
    18    12    47   1
    19    13    20   1
    20    13    50   1
    21    13    51   1
    22    15    16   2
    23    15    17  am
    24    53    15   1
    25    17    26   1
    26    17    29   1
    27    18    19   1
    28    24    18   1
    29    22    21   1
    30    22    23   1
    31    22    24   1
    32    22    25   1
    33    23    35  am
    34    23    36   2
    35    24    25   1
    36    26    27   2
    37    27    28  ar
    38    27    30  ar
    39    28    29   2
    40    28    33  ar
    41    30    31  ar
    42    31    32  ar
    43    32    33  ar
    44    33    34   1
    45    34    43   1
    46    35    37  am
    47    37    38   1
    48    37    39   2
    49    37    40   2
    50    38    41   1
    51    38    42   1
    52    41    42   1
    53    43    44   1
    54    44    45   1
    55    45    46   1
    56    46    47   1
    57    46    48   1
    58    46    49   1
    59     4    54   1
    60     5    55   1
    61     5    56   1
    62     6    57   1
    63     9    58   1
    64    10    59   1
    65    18    60   1
    66    18    61   1
    67    19    62   1
    68    19    63   1
    69    19    64   1
    70    20    65   1
    71    20    66   1
    72    20    67   1
    73    21    68   1
    74    24    69   1
    75    25    70   1
    76    25    71   1
    77    26    72   1
    78    29    73   1
    79    30    74   1
    80    31    75   1
    81    32    76   1
    82    34    77   1
    83    34    78   1
    84    35    79   1
    85    38    80   1
    86    41    81   1
    87    41    82   1
    88    42    83   1
    89    42    84   1
    90    43    85   1
    91    43    86   1
    92    44    87   1
    93    44    88   1
    94    45    89   1
    95    45    90   1
    96    47    91   1
    97    47    92   1
    98    48    93   1
    99    48    94   1
   100    48    95   1
   101    49    96   1
   102    49    97   1
   103    49    98   1
   104    50    99   1
   105    50   100   1
   106    50   101   1
   107    51   102   1
   108    51   103   1
   109    51   104   1
   110    52   105   1
   111    52   106   1
@<TRIPOS>SUBSTRUCTURE
     1  SU3      1

