@<TRIPOS>MOLECULE
3su5_ligand_071
   106   111
SMALL
GAST_HUCK
****
This file was generated by PARSER (from files_GN.cpp)

@<TRIPOS>ATOM
      1 C         -15.5965   -8.1200   13.4278 C.2         1 SU3       0.2013
      2 N         -13.8477   -9.5090   12.5143 N.am        1 SU3      -0.2469
      3 O         -15.8085   -7.8317   14.6030 O.2         1 SU3      -0.3947
      4 CA        -15.2000   -9.4765   13.0415 C.3         1 SU3       0.1363
      5 CB        -15.1670  -10.5251   14.1821 C.3         1 SU3       0.0206
      6 CG        -13.7265  -10.4574   14.7171 C.3         1 SU3       0.1158
      7 CAF       -13.5235   -9.2736   11.2312 C.2         1 SU3       0.2070
      8 OAG       -14.4346   -9.1035   10.4320 O.2         1 SU3      -0.3942
      9 CAH       -12.1607   -9.3025   10.6569 C.3         1 SU3       0.1378
     10 NAI       -12.0844  -10.4824    9.8260 N.am        1 SU3      -0.2407
     11 CAJ       -11.1965  -11.4938    9.9601 C.2         1 SU3       0.3218
     12 OAK       -11.2250  -12.5073    9.0552 O.3         1 SU3      -0.2633
     13 CAL       -11.6813   -7.9973    9.8974 C.3         1 SU3       0.0025
     14 OAM       -10.2513  -11.4856   10.9304 O.2         1 SU3      -0.3774
     15 CAO       -13.5646  -12.4797   16.2287 C.2         1 SU3       0.4317
     16 OAP       -14.3071  -11.9338   17.2198 O.2         1 SU3      -0.3166
     17 NAQ       -13.1636  -13.7718   16.2829 N.am        1 SU3      -0.2080
     18 CAR       -15.6649   -3.7532   14.3335 C.3         1 SU3      -0.0516
     19 CAS       -14.5081   -2.8100   14.7187 C.3         1 SU3      -0.0651
     20 CAT       -11.5157   -6.8299   10.9290 C.3         1 SU3      -0.0558
     21 NAV       -15.7568   -7.2088   12.4815 N.am        1 SU3      -0.2737
     22 CAX       -16.1730   -5.8523   12.6875 C.3         1 SU3       0.1374
     23 CAY       -17.5814   -5.5941   12.4429 C.2         1 SU3       0.2444
     24 CAZ       -15.1806   -4.9387   13.4596 C.3         1 SU3      -0.0066
     25 CBA       -15.2732   -4.8409   11.9346 C.3         1 SU3      -0.0152
     26 CBB       -13.3827  -14.6405   17.2944 C.2         1 SU3       0.0383
     27 CBC       -12.8940  -15.8857   16.9231 C.ar        1 SU3      -0.0374
     28 CBD       -12.3606  -15.7590   15.6423 C.ar        1 SU3      -0.0293
     29 CBE       -12.5245  -14.4265   15.2846 C.2         1 SU3       0.0366
     30 CBF       -12.8926  -17.1212   17.5913 C.ar        1 SU3      -0.0689
     31 CBG       -12.3504  -18.2393   16.9267 C.ar        1 SU3      -0.0688
     32 CBH       -11.8213  -18.1120   15.6234 C.ar        1 SU3      -0.0606
     33 CBI       -11.8156  -16.8656   14.9502 C.ar        1 SU3      -0.0432
     34 CBJ       -11.2984  -16.7342   13.5582 C.3         1 SU3      -0.0194
     35 NBK       -18.0952   -5.9477   11.2733 N.am        1 SU3      -0.1552
     36 OBL       -18.2800   -5.1697   13.3518 O.2         1 SU3      -0.3404
     37 SBM       -19.6949   -5.7090   10.7767 S.o2        1 SU3       0.0645
     38 CBN       -20.9885   -6.2095   11.9494 C.3         1 SU3       0.1004
     39 OBO       -19.8789   -4.2114   10.2909 O.2         1 SU3      -0.1503
     40 OBP       -19.8521   -6.5865    9.4646 O.2         1 SU3      -0.1503
     41 CBQ       -22.3809   -5.6030   11.6942 C.3         1 SU3      -0.0268
     42 CBR       -22.1497   -7.1005   11.4813 C.3         1 SU3      -0.0268
     43 CBS       -12.4488  -16.6371   12.5167 C.3         1 SU3      -0.0433
     44 CBT       -11.9832  -16.5538   11.0355 C.3         1 SU3      -0.0507
     45 CBU       -11.3650  -15.1829   10.6175 C.3         1 SU3      -0.0453
     46 CBV       -10.9354  -15.0163    9.1090 C.3         1 SU3      -0.0072
     47 CBW       -10.2918  -13.5967    8.9127 C.3         1 SU3       0.0824
     48 CBX        -9.8639  -16.0848    8.7162 C.3         1 SU3      -0.0574
     49 CBY       -12.1600  -15.1489    8.1456 C.3         1 SU3      -0.0574
     50 CBZ       -10.2817   -8.2566    9.2428 C.3         1 SU3      -0.0558
     51 CCA       -12.6507   -7.5359    8.7573 C.3         1 SU3      -0.0558
     52 CD1       -12.9098   -9.9685   13.5051 C.3         1 SU3       0.0677
     53 OD2       -13.2729  -11.7538   15.1171 O.3         1 SU3      -0.2338
     54 H1        -15.9291   -9.8408   12.3064 H           1 SU3       0.0803
     55 H2        -15.3571  -11.5152   13.7591 H           1 SU3       0.0342
     56 H3        -15.9073  -10.3472   14.9646 H           1 SU3       0.0342
     57 H4        -13.6538   -9.7414   15.5395 H           1 SU3       0.0673
     58 H5        -11.4510   -9.4090   11.4747 H           1 SU3       0.0805
     59 H6        -12.7076  -10.5356    9.0853 H           1 SU3       0.1899
     60 H7        -16.4276   -3.1738   13.8131 H           1 SU3       0.0265
     61 H8        -16.1080   -4.1597   15.2462 H           1 SU3       0.0265
     62 H9        -14.8824   -2.0075   15.3573 H           1 SU3       0.0230
     63 H10       -14.0600   -2.3630   13.8278 H           1 SU3       0.0230
     64 H11       -13.7370   -3.3533   15.2679 H           1 SU3       0.0230
     65 H12       -11.2235   -5.9042   10.4301 H           1 SU3       0.0237
     66 H13       -10.7474   -7.0702   11.6689 H           1 SU3       0.0237
     67 H14       -12.4487   -6.6452   11.4599 H           1 SU3       0.0237
     68 H15       -15.6302   -7.4831   11.5596 H           1 SU3       0.1839
     69 H16       -14.2815   -5.4522   13.8082 H           1 SU3       0.0312
     70 H17       -15.7206   -3.9122   11.5748 H           1 SU3       0.0279
     71 H18       -14.4162   -5.2398   11.3979 H           1 SU3       0.0279
     72 H19       -13.8542  -14.4336   18.1791 H           1 SU3       0.0373
     73 H20       -12.2375  -14.0243   14.3894 H           1 SU3       0.0361
     74 H21       -13.2888  -17.2101   18.5300 H           1 SU3       0.0557
     75 H22       -12.3531  -19.1518   17.3909 H           1 SU3       0.0599
     76 H23       -11.4498  -18.9465   15.1600 H           1 SU3       0.0557
     77 H24       -10.6746  -17.5978   13.3077 H           1 SU3       0.0426
     78 H25       -10.6558  -15.8523   13.5001 H           1 SU3       0.0426
     79 H26       -17.5039   -6.3641   10.6273 H           1 SU3       0.2148
     80 H27       -20.7166   -6.2957   13.0017 H           1 SU3       0.0559
     81 H28       -22.5530   -5.0432   10.7727 H           1 SU3       0.0285
     82 H29       -22.9967   -5.3775   12.5663 H           1 SU3       0.0285
     83 H30       -22.6160   -7.7328   12.2382 H           1 SU3       0.0285
     84 H31       -22.1606   -7.4240   10.4405 H           1 SU3       0.0285
     85 H32       -13.0846  -15.7768   12.7351 H           1 SU3       0.0287
     86 H33       -13.0692  -17.5328   12.6185 H           1 SU3       0.0287
     87 H34       -12.8585  -16.7451   10.4123 H           1 SU3       0.0267
     88 H35       -11.2678  -17.3574   10.8562 H           1 SU3       0.0267
     89 H36       -10.4875  -15.0084   11.2448 H           1 SU3       0.0271
     90 H37       -12.0901  -14.4029   10.8615 H           1 SU3       0.0271
     91 H38        -9.4483  -13.4784    9.5970 H           1 SU3       0.0617
     92 H39        -9.8829  -13.5118    7.9030 H           1 SU3       0.0617
     93 H40       -10.2810  -17.0934    8.7432 H           1 SU3       0.0236
     94 H41        -9.0120  -16.0489    9.3998 H           1 SU3       0.0236
     95 H42        -9.4940  -15.9146    7.7020 H           1 SU3       0.0236
     96 H43       -12.9653  -14.4757    8.4452 H           1 SU3       0.0236
     97 H44       -12.5509  -16.1674    8.1437 H           1 SU3       0.0236
     98 H45       -11.8732  -14.9045    7.1202 H           1 SU3       0.0236
     99 H46       -10.3553   -9.0049    8.4492 H           1 SU3       0.0237
    100 H47        -9.5646   -8.6185    9.9814 H           1 SU3       0.0237
    101 H48        -9.8748   -7.3434    8.8055 H           1 SU3       0.0237
    102 H49       -13.5865   -7.1443    9.1610 H           1 SU3       0.0237
    103 H50       -12.8873   -8.3694    8.0966 H           1 SU3       0.0237
    104 H51       -12.1950   -6.7527    8.1498 H           1 SU3       0.0237
    105 H52       -12.2359   -9.1601   13.7996 H           1 SU3       0.0553
    106 H53       -12.3194  -10.7998   13.1104 H           1 SU3       0.0553
@<TRIPOS>BOND
     1     1     3   2
     2     1     4   1
     3    21     1  am
     4     4     2   1
     5     2     7  am
     6     2    52   1
     7     4     5   1
     8     5     6   1
     9     6    52   1
    10     6    53   1
    11     7     8   2
    12     7     9   1
    13     9    10   1
    14     9    13   1
    15    10    11  am
    16    11    12   1
    17    11    14   2
    18    12    47   1
    19    13    20   1
    20    13    50   1
    21    13    51   1
    22    15    16   2
    23    15    17  am
    24    53    15   1
    25    17    26   1
    26    17    29   1
    27    18    19   1
    28    24    18   1
    29    22    21   1
    30    22    23   1
    31    22    24   1
    32    22    25   1
    33    23    35  am
    34    23    36   2
    35    24    25   1
    36    26    27   2
    37    27    28  ar
    38    27    30  ar
    39    28    29   2
    40    28    33  ar
    41    30    31  ar
    42    31    32  ar
    43    32    33  ar
    44    33    34   1
    45    34    43   1
    46    35    37  am
    47    37    38   1
    48    37    39   2
    49    37    40   2
    50    38    41   1
    51    38    42   1
    52    41    42   1
    53    43    44   1
    54    44    45   1
    55    45    46   1
    56    46    47   1
    57    46    48   1
    58    46    49   1
    59     4    54   1
    60     5    55   1
    61     5    56   1
    62     6    57   1
    63     9    58   1
    64    10    59   1
    65    18    60   1
    66    18    61   1
    67    19    62   1
    68    19    63   1
    69    19    64   1
    70    20    65   1
    71    20    66   1
    72    20    67   1
    73    21    68   1
    74    24    69   1
    75    25    70   1
    76    25    71   1
    77    26    72   1
    78    29    73   1
    79    30    74   1
    80    31    75   1
    81    32    76   1
    82    34    77   1
    83    34    78   1
    84    35    79   1
    85    38    80   1
    86    41    81   1
    87    41    82   1
    88    42    83   1
    89    42    84   1
    90    43    85   1
    91    43    86   1
    92    44    87   1
    93    44    88   1
    94    45    89   1
    95    45    90   1
    96    47    91   1
    97    47    92   1
    98    48    93   1
    99    48    94   1
   100    48    95   1
   101    49    96   1
   102    49    97   1
   103    49    98   1
   104    50    99   1
   105    50   100   1
   106    50   101   1
   107    51   102   1
   108    51   103   1
   109    51   104   1
   110    52   105   1
   111    52   106   1
@<TRIPOS>SUBSTRUCTURE
     1  SU3      1

