@<TRIPOS>MOLECULE
3su5_ligand_046
   106   111
SMALL
GAST_HUCK
****
This file was generated by PARSER (from files_GN.cpp)

@<TRIPOS>ATOM
      1 C         -13.4685  -10.7839   12.5410 C.2         1 SU3       0.2013
      2 N         -14.9219  -12.3529   13.6876 N.am        1 SU3      -0.2469
      3 O         -14.4599  -10.3907   11.9294 O.2         1 SU3      -0.3947
      4 CA        -13.5617  -11.9078   13.4739 C.3         1 SU3       0.1363
      5 CB        -12.7797  -13.1617   13.0121 C.3         1 SU3       0.0206
      6 CG        -13.8467  -14.1594   12.5288 C.3         1 SU3       0.1158
      7 CAF       -15.8329  -11.6398   14.3674 C.2         1 SU3       0.2070
      8 OAG       -15.4317  -10.6624   14.9957 O.2         1 SU3      -0.3942
      9 CAH       -17.2667  -11.9560   14.5059 C.3         1 SU3       0.1378
     10 NAI       -17.4710  -12.3720   15.8660 N.am        1 SU3      -0.2407
     11 CAJ       -17.9369  -13.5758   16.2825 C.2         1 SU3       0.3218
     12 OAK       -18.0437  -13.7662   17.6232 O.3         1 SU3      -0.2633
     13 CAL       -18.2835  -10.8187   14.0584 C.3         1 SU3       0.0025
     14 OAM       -18.3160  -14.5408   15.4124 O.2         1 SU3      -0.3774
     15 CAO       -12.7620  -16.4457   12.7979 C.2         1 SU3       0.4317
     16 OAP       -11.8668  -16.2781   11.7990 O.2         1 SU3      -0.3166
     17 NAQ       -12.7907  -17.5752   13.5518 N.am        1 SU3      -0.2080
     18 CAR       -10.1116   -7.7862   10.1528 C.3         1 SU3      -0.0516
     19 CAS        -9.8633   -7.7520    8.6269 C.3         1 SU3      -0.0651
     20 CAT       -18.0831   -9.4579   14.8111 C.3         1 SU3      -0.0558
     21 NAV       -12.3068  -10.1724   12.3680 N.am        1 SU3      -0.2737
     22 CAX       -12.1130   -8.9751   11.6037 C.3         1 SU3       0.1374
     23 CAY       -12.3583   -7.7300   12.2991 C.2         1 SU3       0.2444
     24 CAZ       -10.9386   -9.0279   10.5879 C.3         1 SU3      -0.0066
     25 CBA       -12.3897   -9.0848   10.0857 C.3         1 SU3      -0.0152
     26 CBB       -12.0132  -18.6669   13.4009 C.2         1 SU3       0.0383
     27 CBC       -12.3395  -19.5828   14.3981 C.ar        1 SU3      -0.0374
     28 CBD       -13.3370  -19.0107   15.1836 C.ar        1 SU3      -0.0293
     29 CBE       -13.6099  -17.7729   14.6110 C.2         1 SU3       0.0366
     30 CBF       -11.8403  -20.8631   14.6782 C.ar        1 SU3      -0.0689
     31 CBG       -12.3643  -21.5556   15.7896 C.ar        1 SU3      -0.0688
     32 CBH       -13.3600  -20.9676   16.5975 C.ar        1 SU3      -0.0606
     33 CBI       -13.8728  -19.6758   16.3127 C.ar        1 SU3      -0.0432
     34 CBJ       -14.9238  -19.0487   17.1629 C.3         1 SU3      -0.0194
     35 NBK       -11.7263   -7.4829   13.4325 N.am        1 SU3      -0.1552
     36 OBL       -13.1761   -6.9482   11.8115 O.2         1 SU3      -0.3404
     37 SBM       -11.9347   -6.1193   14.4093 S.o2        1 SU3       0.0645
     38 CBN       -12.0683   -6.5676   16.1551 C.3         1 SU3       0.1004
     39 OBO       -10.7347   -5.1057   14.1446 O.2         1 SU3      -0.1503
     40 OBP       -13.2385   -5.3106   13.9840 O.2         1 SU3      -0.1503
     41 CBQ       -11.7739   -5.5010   17.2262 C.3         1 SU3      -0.0268
     42 CBR       -13.2172   -5.9440   16.9588 C.3         1 SU3      -0.0268
     43 CBS       -14.3787  -17.8827   18.0358 C.3         1 SU3      -0.0433
     44 CBT       -15.4230  -17.2438   18.9948 C.3         1 SU3      -0.0507
     45 CBU       -16.5032  -16.3619   18.2974 C.3         1 SU3      -0.0453
     46 CBV       -17.5654  -15.6501   19.2203 C.3         1 SU3      -0.0072
     47 CBW       -18.6027  -14.8913   18.3207 C.3         1 SU3       0.0824
     48 CBX       -18.3562  -16.7011   20.0684 C.3         1 SU3      -0.0574
     49 CBY       -16.8868  -14.6292   20.1908 C.3         1 SU3      -0.0574
     50 CBZ       -18.1512  -10.5605   12.5210 C.3         1 SU3      -0.0558
     51 CCA       -19.7488  -11.3025   14.3344 C.3         1 SU3      -0.0558
     52 CD1       -15.1854  -13.6094   13.0565 C.3         1 SU3       0.0677
     53 OD2       -13.6600  -15.4672   13.0687 O.3         1 SU3      -0.2338
     54 H1        -13.1328  -11.5883   14.4309 H           1 SU3       0.0803
     55 H2        -12.2357  -13.5888   13.8589 H           1 SU3       0.0342
     56 H3        -12.0566  -12.9589   12.2191 H           1 SU3       0.0342
     57 H4        -13.8699  -14.2137   11.4390 H           1 SU3       0.0673
     58 H5        -17.4967  -12.8008   13.8551 H           1 SU3       0.0805
     59 H6        -17.2708  -11.7243   16.5578 H           1 SU3       0.1899
     60 H7        -10.5993   -6.8523   10.4505 H           1 SU3       0.0265
     61 H8         -9.1440   -7.8385   10.6630 H           1 SU3       0.0265
     62 H9         -9.1459   -6.9615    8.3880 H           1 SU3       0.0230
     63 H10       -10.7977   -7.5409    8.0975 H           1 SU3       0.0230
     64 H11        -9.4682   -8.7128    8.2794 H           1 SU3       0.0230
     65 H12       -18.9112   -8.7733   14.6061 H           1 SU3       0.0237
     66 H13       -17.1677   -8.9553   14.4906 H           1 SU3       0.0237
     67 H14       -18.0335   -9.6143   15.8913 H           1 SU3       0.0237
     68 H15       -11.5430  -10.5096   12.8605 H           1 SU3       0.1839
     69 H16       -10.4330   -9.9967   10.5219 H           1 SU3       0.0312
     70 H17       -12.7557   -8.1913    9.5776 H           1 SU3       0.0279
     71 H18       -12.6836  -10.0606    9.6987 H           1 SU3       0.0279
     72 H19       -11.2989  -18.8123   12.6816 H           1 SU3       0.0373
     73 H20       -14.3107  -17.1153   14.9572 H           1 SU3       0.0361
     74 H21       -11.1189  -21.2845   14.0910 H           1 SU3       0.0557
     75 H22       -12.0076  -22.4856   16.0123 H           1 SU3       0.0599
     76 H23       -13.7056  -21.4903   17.4058 H           1 SU3       0.0557
     77 H24       -15.3621  -19.7980   17.8268 H           1 SU3       0.0426
     78 H25       -15.7264  -18.6933   16.5142 H           1 SU3       0.0426
     79 H26       -11.1385   -8.1874   13.7696 H           1 SU3       0.2148
     80 H27       -11.8561   -7.5975   16.4396 H           1 SU3       0.0559
     81 H28       -11.5546   -4.4822   16.9034 H           1 SU3       0.0285
     82 H29       -11.3554   -5.8515   18.1718 H           1 SU3       0.0285
     83 H30       -13.6575   -6.5767   17.7295 H           1 SU3       0.0285
     84 H31       -13.8383   -5.1942   16.4706 H           1 SU3       0.0285
     85 H32       -13.9609  -17.0987   17.4023 H           1 SU3       0.0287
     86 H33       -13.5599  -18.2739   18.6459 H           1 SU3       0.0287
     87 H34       -14.8733  -16.6247   19.7064 H           1 SU3       0.0267
     88 H35       -15.9020  -18.0463   19.5573 H           1 SU3       0.0267
     89 H36       -17.0389  -16.9945   17.5856 H           1 SU3       0.0271
     90 H37       -15.9822  -15.5985   17.7125 H           1 SU3       0.0271
     91 H38       -19.0640  -15.5910   17.6191 H           1 SU3       0.0617
     92 H39       -19.4086  -14.4871   18.9395 H           1 SU3       0.0617
     93 H40       -17.7085  -17.1979   20.7917 H           1 SU3       0.0236
     94 H41       -18.7976  -17.4641   19.4245 H           1 SU3       0.0236
     95 H42       -19.1613  -16.2227   20.6302 H           1 SU3       0.0236
     96 H43       -16.2486  -13.9324   19.6435 H           1 SU3       0.0236
     97 H44       -16.2719  -15.1399   20.9325 H           1 SU3       0.0236
     98 H45       -17.6389  -14.0493   20.7302 H           1 SU3       0.0236
     99 H46       -18.3215  -11.4823   11.9562 H           1 SU3       0.0237
    100 H47       -17.1549  -10.1869   12.2748 H           1 SU3       0.0237
    101 H48       -18.8799   -9.8168   12.1843 H           1 SU3       0.0237
    102 H49       -19.9218  -11.4220   15.4075 H           1 SU3       0.0237
    103 H50       -19.9408  -12.2617   13.8460 H           1 SU3       0.0237
    104 H51       -20.4800  -10.5817   13.9571 H           1 SU3       0.0237
    105 H52       -15.8849  -13.4716   12.2316 H           1 SU3       0.0553
    106 H53       -15.6370  -14.2987   13.7745 H           1 SU3       0.0553
@<TRIPOS>BOND
     1     1     3   2
     2     1     4   1
     3    21     1  am
     4     4     2   1
     5     2     7  am
     6     2    52   1
     7     4     5   1
     8     5     6   1
     9     6    52   1
    10     6    53   1
    11     7     8   2
    12     7     9   1
    13     9    10   1
    14     9    13   1
    15    10    11  am
    16    11    12   1
    17    11    14   2
    18    12    47   1
    19    13    20   1
    20    13    50   1
    21    13    51   1
    22    15    16   2
    23    15    17  am
    24    53    15   1
    25    17    26   1
    26    17    29   1
    27    18    19   1
    28    24    18   1
    29    22    21   1
    30    22    23   1
    31    22    24   1
    32    22    25   1
    33    23    35  am
    34    23    36   2
    35    24    25   1
    36    26    27   2
    37    27    28  ar
    38    27    30  ar
    39    28    29   2
    40    28    33  ar
    41    30    31  ar
    42    31    32  ar
    43    32    33  ar
    44    33    34   1
    45    34    43   1
    46    35    37  am
    47    37    38   1
    48    37    39   2
    49    37    40   2
    50    38    41   1
    51    38    42   1
    52    41    42   1
    53    43    44   1
    54    44    45   1
    55    45    46   1
    56    46    47   1
    57    46    48   1
    58    46    49   1
    59     4    54   1
    60     5    55   1
    61     5    56   1
    62     6    57   1
    63     9    58   1
    64    10    59   1
    65    18    60   1
    66    18    61   1
    67    19    62   1
    68    19    63   1
    69    19    64   1
    70    20    65   1
    71    20    66   1
    72    20    67   1
    73    21    68   1
    74    24    69   1
    75    25    70   1
    76    25    71   1
    77    26    72   1
    78    29    73   1
    79    30    74   1
    80    31    75   1
    81    32    76   1
    82    34    77   1
    83    34    78   1
    84    35    79   1
    85    38    80   1
    86    41    81   1
    87    41    82   1
    88    42    83   1
    89    42    84   1
    90    43    85   1
    91    43    86   1
    92    44    87   1
    93    44    88   1
    94    45    89   1
    95    45    90   1
    96    47    91   1
    97    47    92   1
    98    48    93   1
    99    48    94   1
   100    48    95   1
   101    49    96   1
   102    49    97   1
   103    49    98   1
   104    50    99   1
   105    50   100   1
   106    50   101   1
   107    51   102   1
   108    51   103   1
   109    51   104   1
   110    52   105   1
   111    52   106   1
@<TRIPOS>SUBSTRUCTURE
     1  SU3      1

