@<TRIPOS>MOLECULE
3su5_ligand_033
   106   111
SMALL
GAST_HUCK
****
This file was generated by PARSER (from files_GN.cpp)

@<TRIPOS>ATOM
      1 C         -17.6679  -18.4690   23.4263 C.2         1 SU3       0.2013
      2 N         -19.7982  -17.6606   22.6648 N.am        1 SU3      -0.2469
      3 O         -17.2758  -19.6352   23.4082 O.2         1 SU3      -0.3947
      4 CA        -18.4378  -17.9672   22.2887 C.3         1 SU3       0.1363
      5 CB        -17.8736  -16.6599   21.6796 C.3         1 SU3       0.0206
      6 CG        -18.7729  -15.5329   22.2177 C.3         1 SU3       0.1158
      7 CAF       -20.7414  -18.6017   22.8699 C.2         1 SU3       0.2070
      8 OAG       -20.4403  -19.7712   22.6542 O.2         1 SU3      -0.3942
      9 CAH       -22.1462  -18.3496   23.2331 C.3         1 SU3       0.1378
     10 NAI       -22.9136  -18.5056   22.0230 N.am        1 SU3      -0.2407
     11 CAJ       -23.7171  -17.5805   21.4475 C.2         1 SU3       0.3218
     12 OAK       -24.3910  -17.9476   20.3246 O.3         1 SU3      -0.2633
     13 CAL       -22.7370  -19.1996   24.4379 C.3         1 SU3       0.0025
     14 OAM       -23.9081  -16.3561   21.9925 O.2         1 SU3      -0.3774
     15 CAO       -18.3118  -13.6562   20.5902 C.2         1 SU3       0.4317
     16 OAP       -17.0431  -13.4599   21.0280 O.2         1 SU3      -0.3166
     17 NAQ       -18.8115  -12.9742   19.5260 N.am        1 SU3      -0.2080
     18 CAR       -16.2791  -16.8568   28.0589 C.3         1 SU3      -0.0516
     19 CAS       -15.9148  -17.8130   29.2178 C.3         1 SU3      -0.0651
     20 CAT       -21.8492  -19.0136   25.7140 C.3         1 SU3      -0.0558
     21 NAV       -17.4176  -17.6824   24.4645 N.am        1 SU3      -0.2737
     22 CAX       -16.6550  -18.0317   25.6316 C.3         1 SU3       0.1374
     23 CAY       -15.2437  -18.3163   25.4356 C.2         1 SU3       0.2444
     24 CAZ       -17.2177  -17.4237   26.9485 C.3         1 SU3      -0.0066
     25 CBA       -17.3737  -18.9319   26.6661 C.3         1 SU3      -0.0152
     26 CBB       -18.2146  -11.9717   18.8438 C.2         1 SU3       0.0383
     27 CBC       -19.0544  -11.5687   17.8086 C.ar        1 SU3      -0.0374
     28 CBD       -20.1874  -12.3755   17.8583 C.ar        1 SU3      -0.0293
     29 CBE       -20.0048  -13.2270   18.9410 C.2         1 SU3       0.0366
     30 CBF       -18.9251  -10.5657   16.8310 C.ar        1 SU3      -0.0689
     31 CBG       -19.9669  -10.3996   15.8969 C.ar        1 SU3      -0.0688
     32 CBH       -21.1107  -11.2286   15.9422 C.ar        1 SU3      -0.0606
     33 CBI       -21.2442  -12.2435   16.9236 C.ar        1 SU3      -0.0432
     34 CBJ       -22.4459  -13.1224   16.9766 C.3         1 SU3      -0.0194
     35 NBK       -14.9103  -19.4022   24.7525 N.am        1 SU3      -0.1552
     36 OBL       -14.4212  -17.4704   25.7806 O.2         1 SU3      -0.3404
     37 SBM       -13.3435  -19.8238   24.2951 S.o2        1 SU3       0.0645
     38 CBN       -13.2819  -21.5462   23.7416 C.3         1 SU3       0.1004
     39 OBO       -12.9184  -18.9048   23.0652 O.2         1 SU3      -0.1503
     40 OBP       -12.3483  -19.5766   25.5116 O.2         1 SU3      -0.1503
     41 CBQ       -12.5609  -22.5927   24.6069 C.3         1 SU3      -0.0268
     42 CBR       -14.0913  -22.5663   24.5602 C.3         1 SU3      -0.0268
     43 CBS       -22.1465  -14.5779   16.5136 C.3         1 SU3      -0.0433
     44 CBT       -23.3727  -15.5384   16.5526 C.3         1 SU3      -0.0507
     45 CBU       -23.8316  -15.9663   17.9785 C.3         1 SU3      -0.0453
     46 CBV       -25.0332  -16.9857   18.0764 C.3         1 SU3      -0.0072
     47 CBW       -25.3889  -17.2174   19.5893 C.3         1 SU3       0.0824
     48 CBX       -26.3048  -16.4088   17.3717 C.3         1 SU3      -0.0574
     49 CBY       -24.6723  -18.3598   17.4247 C.3         1 SU3      -0.0574
     50 CBZ       -24.1754  -18.6730   24.7800 C.3         1 SU3      -0.0558
     51 CCA       -22.8587  -20.7294   24.1316 C.3         1 SU3      -0.0558
     52 CD1       -20.0539  -16.2503   22.6802 C.3         1 SU3       0.0677
     53 OD2       -19.0967  -14.5846   21.1954 O.3         1 SU3      -0.2338
     54 H1        -18.4370  -18.7130   21.4847 H           1 SU3       0.0803
     55 H2        -17.9542  -16.7106   20.5903 H           1 SU3       0.0342
     56 H3        -16.8256  -16.4845   21.9315 H           1 SU3       0.0342
     57 H4        -18.2930  -15.0320   23.0645 H           1 SU3       0.0673
     58 H5        -22.2259  -17.3132   23.5626 H           1 SU3       0.0805
     59 H6        -22.8635  -19.3684   21.5804 H           1 SU3       0.1899
     60 H7        -15.3571  -16.4733   27.6178 H           1 SU3       0.0265
     61 H8        -16.7913  -15.9923   28.4938 H           1 SU3       0.0265
     62 H9        -15.3706  -17.2546   29.9898 H           1 SU3       0.0230
     63 H10       -15.2725  -18.6194   28.8553 H           1 SU3       0.0230
     64 H11       -16.8210  -18.2344   29.6595 H           1 SU3       0.0230
     65 H12       -22.2687  -19.5494   26.5681 H           1 SU3       0.0237
     66 H13       -21.7658  -17.9591   25.9830 H           1 SU3       0.0237
     67 H14       -20.8430  -19.3988   25.5452 H           1 SU3       0.0237
     68 H15       -17.7477  -16.7670   24.4173 H           1 SU3       0.1839
     69 H16       -18.1638  -16.8821   26.8243 H           1 SU3       0.0312
     70 H17       -16.7445  -19.6088   27.2609 H           1 SU3       0.0279
     71 H18       -18.3946  -19.2425   26.4232 H           1 SU3       0.0279
     72 H19       -17.3002  -11.5626   19.0530 H           1 SU3       0.0373
     73 H20       -20.6675  -13.9514   19.2219 H           1 SU3       0.0361
     74 H21       -18.0989   -9.9665   16.7999 H           1 SU3       0.0557
     75 H22       -19.8944   -9.6768   15.1799 H           1 SU3       0.0599
     76 H23       -21.8456  -11.0896   15.2458 H           1 SU3       0.0557
     77 H24       -23.2359  -12.7190   16.3376 H           1 SU3       0.0426
     78 H25       -22.8322  -13.1211   17.9973 H           1 SU3       0.0426
     79 H26       -15.6364  -19.9820   24.4566 H           1 SU3       0.2148
     80 H27       -13.2895  -21.7415   22.6681 H           1 SU3       0.0559
     81 H28       -12.1353  -22.2713   25.5578 H           1 SU3       0.0285
     82 H29       -12.1034  -23.4298   24.0752 H           1 SU3       0.0285
     83 H30       -14.5556  -23.3724   23.9888 H           1 SU3       0.0285
     84 H31       -14.5736  -22.2124   25.4743 H           1 SU3       0.0285
     85 H32       -21.3458  -15.0136   17.1143 H           1 SU3       0.0287
     86 H33       -21.7880  -14.5334   15.4806 H           1 SU3       0.0287
     87 H34       -23.0959  -16.4328   15.9890 H           1 SU3       0.0267
     88 H35       -24.1950  -15.0554   16.0206 H           1 SU3       0.0267
     89 H36       -24.1092  -15.0611   18.5235 H           1 SU3       0.0271
     90 H37       -22.9686  -16.3957   18.4944 H           1 SU3       0.0271
     91 H38       -25.6023  -16.2589   20.0705 H           1 SU3       0.0617
     92 H39       -26.3014  -17.8152   19.6616 H           1 SU3       0.0617
     93 H40       -26.1554  -16.3136   16.2950 H           1 SU3       0.0236
     94 H41       -26.5557  -15.4236   17.7707 H           1 SU3       0.0236
     95 H42       -27.1661  -17.0645   17.5209 H           1 SU3       0.0236
     96 H43       -23.7436  -18.7564   17.8396 H           1 SU3       0.0236
     97 H44       -24.5482  -18.2666   16.3445 H           1 SU3       0.0236
     98 H45       -25.4643  -19.0915   17.6028 H           1 SU3       0.0236
     99 H46       -24.8567  -18.8248   23.9400 H           1 SU3       0.0237
    100 H47       -24.1590  -17.6058   25.0130 H           1 SU3       0.0237
    101 H48       -24.5932  -19.1943   25.6453 H           1 SU3       0.0237
    102 H49       -21.8825  -21.2013   24.0331 H           1 SU3       0.0237
    103 H50       -23.4153  -20.9011   23.2100 H           1 SU3       0.0237
    104 H51       -23.3825  -21.2482   24.9372 H           1 SU3       0.0237
    105 H52       -20.3201  -15.9191   23.6888 H           1 SU3       0.0553
    106 H53       -20.8817  -16.0241   21.9996 H           1 SU3       0.0553
@<TRIPOS>BOND
     1     1     3   2
     2     1     4   1
     3    21     1  am
     4     4     2   1
     5     2     7  am
     6     2    52   1
     7     4     5   1
     8     5     6   1
     9     6    52   1
    10     6    53   1
    11     7     8   2
    12     7     9   1
    13     9    10   1
    14     9    13   1
    15    10    11  am
    16    11    12   1
    17    11    14   2
    18    12    47   1
    19    13    20   1
    20    13    50   1
    21    13    51   1
    22    15    16   2
    23    15    17  am
    24    53    15   1
    25    17    26   1
    26    17    29   1
    27    18    19   1
    28    24    18   1
    29    22    21   1
    30    22    23   1
    31    22    24   1
    32    22    25   1
    33    23    35  am
    34    23    36   2
    35    24    25   1
    36    26    27   2
    37    27    28  ar
    38    27    30  ar
    39    28    29   2
    40    28    33  ar
    41    30    31  ar
    42    31    32  ar
    43    32    33  ar
    44    33    34   1
    45    34    43   1
    46    35    37  am
    47    37    38   1
    48    37    39   2
    49    37    40   2
    50    38    41   1
    51    38    42   1
    52    41    42   1
    53    43    44   1
    54    44    45   1
    55    45    46   1
    56    46    47   1
    57    46    48   1
    58    46    49   1
    59     4    54   1
    60     5    55   1
    61     5    56   1
    62     6    57   1
    63     9    58   1
    64    10    59   1
    65    18    60   1
    66    18    61   1
    67    19    62   1
    68    19    63   1
    69    19    64   1
    70    20    65   1
    71    20    66   1
    72    20    67   1
    73    21    68   1
    74    24    69   1
    75    25    70   1
    76    25    71   1
    77    26    72   1
    78    29    73   1
    79    30    74   1
    80    31    75   1
    81    32    76   1
    82    34    77   1
    83    34    78   1
    84    35    79   1
    85    38    80   1
    86    41    81   1
    87    41    82   1
    88    42    83   1
    89    42    84   1
    90    43    85   1
    91    43    86   1
    92    44    87   1
    93    44    88   1
    94    45    89   1
    95    45    90   1
    96    47    91   1
    97    47    92   1
    98    48    93   1
    99    48    94   1
   100    48    95   1
   101    49    96   1
   102    49    97   1
   103    49    98   1
   104    50    99   1
   105    50   100   1
   106    50   101   1
   107    51   102   1
   108    51   103   1
   109    51   104   1
   110    52   105   1
   111    52   106   1
@<TRIPOS>SUBSTRUCTURE
     1  SU3      1

