@<TRIPOS>MOLECULE
3su5_ligand_032
   106   111
SMALL
GAST_HUCK
****
This file was generated by PARSER (from files_GN.cpp)

@<TRIPOS>ATOM
      1 C          -6.8468   -4.1575    8.2690 C.2         1 SU3       0.2013
      2 N          -8.3035   -5.8961    9.0462 N.am        1 SU3      -0.2469
      3 O          -7.5928   -3.3589    8.8110 O.2         1 SU3      -0.3947
      4 CA         -7.3886   -5.4860    8.0024 C.3         1 SU3       0.1363
      5 CB         -8.2265   -5.5406    6.7086 C.3         1 SU3       0.0206
      6 CG         -9.6617   -5.2588    7.1778 C.3         1 SU3       0.1158
      7 CAF        -7.9000   -6.2863   10.2670 C.2         1 SU3       0.2070
      8 OAG        -6.7002   -6.4654   10.4432 O.2         1 SU3      -0.3942
      9 CAH        -8.7932   -6.5490   11.4094 C.3         1 SU3       0.1378
     10 NAI        -9.2843   -7.8917   11.2510 N.am        1 SU3      -0.2407
     11 CAJ       -10.5780   -8.2770   11.1975 C.2         1 SU3       0.3218
     12 OAK       -10.8321   -9.6116   11.1759 O.3         1 SU3      -0.2633
     13 CAL        -8.2296   -6.3044   12.8767 C.3         1 SU3       0.0025
     14 OAM       -11.5946   -7.3822   11.2537 O.2         1 SU3      -0.3774
     15 CAO       -11.0319   -5.7454    5.1083 C.2         1 SU3       0.4317
     16 OAP       -10.4802   -4.7466    4.3758 O.2         1 SU3      -0.3166
     17 NAQ       -11.9359   -6.6000    4.5669 N.am        1 SU3      -0.2080
     18 CAR        -4.9120    0.0315    7.2374 C.3         1 SU3      -0.0516
     19 CAS        -5.1350    0.2100    5.7217 C.3         1 SU3      -0.0651
     20 CAT        -7.5126   -4.9144   12.9726 C.3         1 SU3      -0.0558
     21 NAV        -5.6232   -3.8287    7.8614 N.am        1 SU3      -0.2737
     22 CAX        -4.8771   -2.6083    8.0635 C.3         1 SU3       0.1374
     23 CAY        -3.4990   -2.6885    7.6234 C.2         1 SU3       0.2444
     24 CAZ        -5.5923   -1.2617    7.7626 C.3         1 SU3      -0.0066
     25 CBA        -5.2016   -1.6196    9.2108 C.3         1 SU3      -0.0152
     26 CBB       -12.4146   -6.5973    3.3018 C.2         1 SU3       0.0383
     27 CBC       -13.2663   -7.6871    3.1445 C.ar        1 SU3      -0.0374
     28 CBD       -13.2965   -8.3667    4.3611 C.ar        1 SU3      -0.0293
     29 CBE       -12.4792   -7.6459    5.2249 C.2         1 SU3       0.0366
     30 CBF       -14.0067   -8.1546    2.0445 C.ar        1 SU3      -0.0689
     31 CBG       -14.7737   -9.3249    2.1983 C.ar        1 SU3      -0.0688
     32 CBH       -14.7903  -10.0192    3.4307 C.ar        1 SU3      -0.0606
     33 CBI       -14.0386   -9.5535    4.5418 C.ar        1 SU3      -0.0432
     34 CBJ       -14.0204  -10.2832    5.8408 C.3         1 SU3      -0.0194
     35 NBK        -3.2233   -2.7792    6.3283 N.am        1 SU3      -0.1552
     36 OBL        -2.6394   -2.7429    8.4809 O.2         1 SU3      -0.3404
     37 SBM        -1.6813   -2.8231    5.6429 S.o2        1 SU3       0.0645
     38 CBN        -0.3679   -3.4738    6.7083 C.3         1 SU3       0.1004
     39 OBO        -1.7742   -3.8304    4.4157 O.2         1 SU3      -0.1503
     40 OBP        -1.3205   -1.3893    5.0617 O.2         1 SU3      -0.1503
     41 CBQ         1.0601   -2.9420    6.5153 C.3         1 SU3      -0.0268
     42 CBR         0.2479   -2.5184    7.7456 C.3         1 SU3      -0.0268
     43 CBS       -12.6614  -10.9949    6.1073 C.3         1 SU3      -0.0433
     44 CBT       -12.5580  -11.6987    7.4897 C.3         1 SU3      -0.0507
     45 CBU       -12.3534  -10.7433    8.7076 C.3         1 SU3      -0.0453
     46 CBV       -12.2522  -11.4069   10.1339 C.3         1 SU3      -0.0072
     47 CBW       -12.1003  -10.2859   11.2226 C.3         1 SU3       0.0824
     48 CBX       -13.5516  -12.2157   10.4623 C.3         1 SU3      -0.0574
     49 CBY       -11.0215  -12.3670   10.2320 C.3         1 SU3      -0.0574
     50 CBZ        -9.4254   -6.2693   13.8934 C.3         1 SU3      -0.0558
     51 CCA        -7.2394   -7.4200   13.3549 C.3         1 SU3      -0.0558
     52 CD1        -9.6749   -5.7876    8.6272 C.3         1 SU3       0.0677
     53 OD2       -10.6479   -5.9384    6.3956 O.3         1 SU3      -0.2338
     54 H1         -6.5697   -6.2024    7.9010 H           1 SU3       0.0803
     55 H2         -8.1718   -6.5503    6.2886 H           1 SU3       0.0342
     56 H3         -7.8988   -4.8282    5.9448 H           1 SU3       0.0342
     57 H4         -9.8608   -4.1815    7.1666 H           1 SU3       0.0673
     58 H5         -9.6198   -5.8410   11.3115 H           1 SU3       0.0805
     59 H6         -8.6205   -8.6006   11.2370 H           1 SU3       0.1899
     60 H7         -5.3521    0.8858    7.7570 H           1 SU3       0.0265
     61 H8         -3.8400    0.0350    7.4413 H           1 SU3       0.0265
     62 H9         -4.7071    1.1579    5.3930 H           1 SU3       0.0230
     63 H10        -6.2020    0.2103    5.4914 H           1 SU3       0.0230
     64 H11        -4.6547   -0.5997    5.1684 H           1 SU3       0.0230
     65 H12        -7.2371   -4.6837   14.0035 H           1 SU3       0.0237
     66 H13        -8.1626   -4.1191   12.6014 H           1 SU3       0.0237
     67 H14        -6.5939   -4.8973   12.3862 H           1 SU3       0.0237
     68 H15        -5.1384   -4.5286    7.3899 H           1 SU3       0.1839
     69 H16        -6.6697   -1.3221    7.5929 H           1 SU3       0.0312
     70 H17        -4.3585   -1.0808    9.6462 H           1 SU3       0.0279
     71 H18        -6.0114   -1.8692    9.8927 H           1 SU3       0.0279
     72 H19       -12.1813   -5.9258    2.5662 H           1 SU3       0.0373
     73 H20       -12.3039   -7.8968    6.2009 H           1 SU3       0.0361
     74 H21       -13.9854   -7.6561    1.1515 H           1 SU3       0.0557
     75 H22       -15.3206   -9.6813    1.4096 H           1 SU3       0.0599
     76 H23       -15.3473  -10.8721    3.5083 H           1 SU3       0.0557
     77 H24       -14.8115  -11.0367    5.8628 H           1 SU3       0.0426
     78 H25       -14.2392   -9.5702    6.6372 H           1 SU3       0.0426
     79 H26        -3.9714   -2.7835    5.7135 H           1 SU3       0.2148
     80 H27        -0.4368   -4.5094    7.0408 H           1 SU3       0.0559
     81 H28         1.2052   -2.1581    5.7710 H           1 SU3       0.0285
     82 H29         1.8690   -3.6426    6.7207 H           1 SU3       0.0285
     83 H30         0.5439   -2.9750    8.6925 H           1 SU3       0.0285
     84 H31        -0.1173   -1.4913    7.7445 H           1 SU3       0.0285
     85 H32       -11.8299  -10.2932    6.0136 H           1 SU3       0.0287
     86 H33       -12.5274  -11.7546    5.3306 H           1 SU3       0.0287
     87 H34       -11.7076  -12.3822    7.4411 H           1 SU3       0.0267
     88 H35       -13.4574  -12.3003    7.6287 H           1 SU3       0.0267
     89 H36       -13.1824  -10.0326    8.7202 H           1 SU3       0.0271
     90 H37       -11.4432  -10.1643    8.5273 H           1 SU3       0.0271
     91 H38       -12.9258   -9.5733   11.1424 H           1 SU3       0.0617
     92 H39       -12.1590  -10.7320   12.2186 H           1 SU3       0.0617
     93 H40       -13.6592  -13.0815    9.8069 H           1 SU3       0.0236
     94 H41       -14.4378  -11.5865   10.3477 H           1 SU3       0.0236
     95 H42       -13.5316  -12.5899   11.4891 H           1 SU3       0.0236
     96 H43       -10.1032  -11.8535    9.9389 H           1 SU3       0.0236
     97 H44       -11.1443  -13.2373    9.5851 H           1 SU3       0.0236
     98 H45       -10.8961  -12.7302   11.2545 H           1 SU3       0.0236
     99 H46        -9.9705   -7.2141   13.8896 H           1 SU3       0.0237
    100 H47       -10.1285   -5.4733   13.6395 H           1 SU3       0.0237
    101 H48        -9.0736   -6.0898   14.9112 H           1 SU3       0.0237
    102 H49        -6.3614   -7.4837   12.7123 H           1 SU3       0.0237
    103 H50        -7.7237   -8.3969   13.3620 H           1 SU3       0.0237
    104 H51        -6.8880   -7.2195   14.3698 H           1 SU3       0.0237
    105 H52       -10.2400   -5.0904    9.2532 H           1 SU3       0.0553
    106 H53       -10.1384   -6.7765    8.6710 H           1 SU3       0.0553
@<TRIPOS>BOND
     1     1     3   2
     2     1     4   1
     3    21     1  am
     4     4     2   1
     5     2     7  am
     6     2    52   1
     7     4     5   1
     8     5     6   1
     9     6    52   1
    10     6    53   1
    11     7     8   2
    12     7     9   1
    13     9    10   1
    14     9    13   1
    15    10    11  am
    16    11    12   1
    17    11    14   2
    18    12    47   1
    19    13    20   1
    20    13    50   1
    21    13    51   1
    22    15    16   2
    23    15    17  am
    24    53    15   1
    25    17    26   1
    26    17    29   1
    27    18    19   1
    28    24    18   1
    29    22    21   1
    30    22    23   1
    31    22    24   1
    32    22    25   1
    33    23    35  am
    34    23    36   2
    35    24    25   1
    36    26    27   2
    37    27    28  ar
    38    27    30  ar
    39    28    29   2
    40    28    33  ar
    41    30    31  ar
    42    31    32  ar
    43    32    33  ar
    44    33    34   1
    45    34    43   1
    46    35    37  am
    47    37    38   1
    48    37    39   2
    49    37    40   2
    50    38    41   1
    51    38    42   1
    52    41    42   1
    53    43    44   1
    54    44    45   1
    55    45    46   1
    56    46    47   1
    57    46    48   1
    58    46    49   1
    59     4    54   1
    60     5    55   1
    61     5    56   1
    62     6    57   1
    63     9    58   1
    64    10    59   1
    65    18    60   1
    66    18    61   1
    67    19    62   1
    68    19    63   1
    69    19    64   1
    70    20    65   1
    71    20    66   1
    72    20    67   1
    73    21    68   1
    74    24    69   1
    75    25    70   1
    76    25    71   1
    77    26    72   1
    78    29    73   1
    79    30    74   1
    80    31    75   1
    81    32    76   1
    82    34    77   1
    83    34    78   1
    84    35    79   1
    85    38    80   1
    86    41    81   1
    87    41    82   1
    88    42    83   1
    89    42    84   1
    90    43    85   1
    91    43    86   1
    92    44    87   1
    93    44    88   1
    94    45    89   1
    95    45    90   1
    96    47    91   1
    97    47    92   1
    98    48    93   1
    99    48    94   1
   100    48    95   1
   101    49    96   1
   102    49    97   1
   103    49    98   1
   104    50    99   1
   105    50   100   1
   106    50   101   1
   107    51   102   1
   108    51   103   1
   109    51   104   1
   110    52   105   1
   111    52   106   1
@<TRIPOS>SUBSTRUCTURE
     1  SU3      1

