@<TRIPOS>MOLECULE
3su5_ligand_042
   106   111
SMALL
GAST_HUCK
****
This file was generated by PARSER (from files_GN.cpp)

@<TRIPOS>ATOM
      1 C         -11.3844   -7.1073    9.1101 C.2         1 SU3       0.2013
      2 N          -9.6681   -5.5135    9.5005 N.am        1 SU3      -0.2469
      3 O         -10.8402   -7.9054    8.3481 O.2         1 SU3      -0.3947
      4 CA        -11.0227   -5.6938    9.0315 C.3         1 SU3       0.1363
      5 CB        -11.0199   -5.0973    7.6013 C.3         1 SU3       0.0206
      6 CG         -9.5572   -5.2209    7.1236 C.3         1 SU3       0.1158
      7 CAF        -9.3291   -5.4619   10.8032 C.2         1 SU3       0.2070
      8 OAG       -10.2233   -5.4270   11.6401 O.2         1 SU3      -0.3942
      9 CAH        -7.9544   -5.3865   11.3210 C.3         1 SU3       0.1378
     10 NAI        -7.7748   -4.0049   11.6836 N.am        1 SU3      -0.2407
     11 CAJ        -6.7920   -3.1666   11.2873 C.2         1 SU3       0.3218
     12 OAK        -6.7631   -1.9395   11.8700 O.3         1 SU3      -0.2633
     13 CAL        -7.5775   -6.3866   12.5030 C.3         1 SU3       0.0025
     14 OAM        -5.8170   -3.5584   10.4342 O.2         1 SU3      -0.3774
     15 CAO        -9.2797   -3.6756    5.1324 C.2         1 SU3       0.4317
     16 OAP        -9.9688   -4.4784    4.2866 O.2         1 SU3      -0.3166
     17 NAQ        -8.7555   -2.4958    4.7129 N.am        1 SU3      -0.2080
     18 CAR       -11.4111  -11.3712   10.7585 C.3         1 SU3      -0.0516
     19 CAS       -10.0903  -11.8625   10.1302 C.3         1 SU3      -0.0651
     20 CAT        -8.4051   -7.7126   12.4341 C.3         1 SU3      -0.0558
     21 NAV       -12.2059   -7.5344   10.0542 N.am        1 SU3      -0.2737
     22 CAX       -12.5439   -8.9059   10.2917 C.3         1 SU3       0.1374
     23 CAY       -13.6262   -9.4292    9.4875 C.2         1 SU3       0.2444
     24 CAZ       -11.4460   -9.8236   10.8998 C.3         1 SU3      -0.0066
     25 CBA       -12.5779   -9.2808   11.7890 C.3         1 SU3      -0.0152
     26 CBB        -8.8510   -1.9692    3.4726 C.2         1 SU3       0.0383
     27 CBC        -8.2206   -0.7297    3.4632 C.ar        1 SU3      -0.0374
     28 CBD        -7.7240   -0.5061    4.7440 C.ar        1 SU3      -0.0293
     29 CBE        -8.0590   -1.6355    5.4884 C.2         1 SU3       0.0366
     30 CBF        -8.0525    0.2220    2.4419 C.ar        1 SU3      -0.0689
     31 CBG        -7.3667    1.4157    2.7452 C.ar        1 SU3      -0.0688
     32 CBH        -6.8685    1.6458    4.0460 C.ar        1 SU3      -0.0606
     33 CBI        -7.0436    0.6883    5.0805 C.ar        1 SU3      -0.0432
     34 CBJ        -6.5517    0.9373    6.4635 C.3         1 SU3      -0.0194
     35 NBK       -14.8644   -9.1338    9.8344 N.am        1 SU3      -0.1552
     36 OBL       -13.3444  -10.0113    8.4466 O.2         1 SU3      -0.3404
     37 SBM       -16.2776   -9.5359    9.0060 S.o2        1 SU3       0.0645
     38 CBN       -17.3267   -8.1090    8.6448 C.3         1 SU3       0.1004
     39 OBO       -15.9751  -10.2374    7.6100 O.2         1 SU3      -0.1503
     40 OBP       -17.0901  -10.5907    9.8738 O.2         1 SU3      -0.1503
     41 CBQ       -17.2368   -6.8520    9.5234 C.3         1 SU3      -0.0268
     42 CBR       -16.6105   -6.8542    8.1227 C.3         1 SU3      -0.0268
     43 CBS        -7.7135    1.2222    7.4577 C.3         1 SU3      -0.0433
     44 CBT        -7.2731    1.4942    8.9222 C.3         1 SU3      -0.0507
     45 CBU        -6.7156    0.2511    9.6845 C.3         1 SU3      -0.0453
     46 CBV        -6.3424    0.4432   11.2035 C.3         1 SU3      -0.0072
     47 CBW        -5.7698   -0.9067   11.7600 C.3         1 SU3       0.0824
     48 CBX        -5.2346    1.5366   11.3609 C.3         1 SU3      -0.0574
     49 CBY        -7.5897    0.8558   12.0537 C.3         1 SU3      -0.0574
     50 CBZ        -6.0703   -6.7921   12.3823 C.3         1 SU3      -0.0558
     51 CCA        -7.7904   -5.7518   13.9190 C.3         1 SU3      -0.0558
     52 CD1        -8.7366   -5.3686    8.4214 C.3         1 SU3       0.0677
     53 OD2        -9.1062   -4.0493    6.4286 O.3         1 SU3      -0.2338
     54 H1        -11.7206   -5.0912    9.6317 H           1 SU3       0.0803
     55 H2        -11.2976   -4.0434    7.6473 H           1 SU3       0.0342
     56 H3        -11.7115   -5.6060    6.9296 H           1 SU3       0.0342
     57 H4         -9.4301   -6.1111    6.4989 H           1 SU3       0.0673
     58 H5         -7.2775   -5.6230   10.4991 H           1 SU3       0.0805
     59 H6         -8.4038   -3.6439   12.3282 H           1 SU3       0.1899
     60 H7        -11.5050  -11.8243   11.7476 H           1 SU3       0.0265
     61 H8        -12.2376  -11.7215   10.1436 H           1 SU3       0.0265
     62 H9        -10.1213  -12.9460   10.0150 H           1 SU3       0.0230
     63 H10        -9.2484  -11.6064   10.7755 H           1 SU3       0.0230
     64 H11        -9.9404  -11.4081    9.1495 H           1 SU3       0.0230
     65 H12        -8.0384   -8.4509   13.1460 H           1 SU3       0.0237
     66 H13        -8.3469   -8.1438   11.4322 H           1 SU3       0.0237
     67 H14        -9.4555   -7.5341   12.6700 H           1 SU3       0.0237
     68 H15       -12.6109   -6.8755   10.6376 H           1 SU3       0.1839
     69 H16       -10.4984   -9.3324   11.1301 H           1 SU3       0.0312
     70 H17       -13.3309  -10.0111   12.1027 H           1 SU3       0.0279
     71 H18       -12.2802   -8.5065   12.5001 H           1 SU3       0.0279
     72 H19        -9.3210   -2.3914    2.6675 H           1 SU3       0.0373
     73 H20        -7.8215   -1.7728    6.4731 H           1 SU3       0.0361
     74 H21        -8.4223    0.0535    1.5051 H           1 SU3       0.0557
     75 H22        -7.2386    2.1226    2.0183 H           1 SU3       0.0599
     76 H23        -6.3875    2.5276    4.2389 H           1 SU3       0.0557
     77 H24        -5.8707    1.7919    6.4778 H           1 SU3       0.0426
     78 H25        -5.9777    0.0669    6.7879 H           1 SU3       0.0426
     79 H26       -14.9801   -8.6305   10.6581 H           1 SU3       0.2148
     80 H27       -18.2989   -8.2929    8.1834 H           1 SU3       0.0559
     81 H28       -16.5237   -6.8631   10.3484 H           1 SU3       0.0285
     82 H29       -18.1477   -6.2548    9.6148 H           1 SU3       0.0285
     83 H30       -17.1513   -6.2716    7.3741 H           1 SU3       0.0285
     84 H31       -15.5206   -6.8423    8.1209 H           1 SU3       0.0285
     85 H32        -8.4271    0.3961    7.4574 H           1 SU3       0.0287
     86 H33        -8.2499    2.1084    7.1008 H           1 SU3       0.0287
     87 H34        -8.1493    1.8660    9.4540 H           1 SU3       0.0267
     88 H35        -6.5273    2.2878    8.9121 H           1 SU3       0.0267
     89 H36        -5.8228   -0.0917    9.1553 H           1 SU3       0.0271
     90 H37        -7.4549   -0.5503    9.6089 H           1 SU3       0.0271
     91 H38        -4.9251   -1.2414   11.1513 H           1 SU3       0.0617
     92 H39        -5.3889   -0.7583   12.7741 H           1 SU3       0.0617
     93 H40        -5.6061    2.5212   11.0746 H           1 SU3       0.0236
     94 H41        -4.3694    1.3024   10.7373 H           1 SU3       0.0236
     95 H42        -4.8973    1.6038   12.3967 H           1 SU3       0.0236
     96 H43        -8.4180    0.1612   11.8951 H           1 SU3       0.0236
     97 H44        -7.9331    1.8575   11.7937 H           1 SU3       0.0236
     98 H45        -7.3476    0.8577   13.1182 H           1 SU3       0.0236
     99 H46        -5.4252   -5.9104   12.3559 H           1 SU3       0.0237
    100 H47        -5.8895   -7.3622   11.4658 H           1 SU3       0.0237
    101 H48        -5.7620   -7.4149   13.2259 H           1 SU3       0.0237
    102 H49        -8.7951   -5.3352   14.0111 H           1 SU3       0.0237
    103 H50        -7.0726   -4.9450   14.1008 H           1 SU3       0.0237
    104 H51        -7.6573   -6.4916   14.7123 H           1 SU3       0.0237
    105 H52        -8.0908   -6.2458    8.3565 H           1 SU3       0.0553
    106 H53        -8.1182   -4.4849    8.5816 H           1 SU3       0.0553
@<TRIPOS>BOND
     1     1     3   2
     2     1     4   1
     3    21     1  am
     4     4     2   1
     5     2     7  am
     6     2    52   1
     7     4     5   1
     8     5     6   1
     9     6    52   1
    10     6    53   1
    11     7     8   2
    12     7     9   1
    13     9    10   1
    14     9    13   1
    15    10    11  am
    16    11    12   1
    17    11    14   2
    18    12    47   1
    19    13    20   1
    20    13    50   1
    21    13    51   1
    22    15    16   2
    23    15    17  am
    24    53    15   1
    25    17    26   1
    26    17    29   1
    27    18    19   1
    28    24    18   1
    29    22    21   1
    30    22    23   1
    31    22    24   1
    32    22    25   1
    33    23    35  am
    34    23    36   2
    35    24    25   1
    36    26    27   2
    37    27    28  ar
    38    27    30  ar
    39    28    29   2
    40    28    33  ar
    41    30    31  ar
    42    31    32  ar
    43    32    33  ar
    44    33    34   1
    45    34    43   1
    46    35    37  am
    47    37    38   1
    48    37    39   2
    49    37    40   2
    50    38    41   1
    51    38    42   1
    52    41    42   1
    53    43    44   1
    54    44    45   1
    55    45    46   1
    56    46    47   1
    57    46    48   1
    58    46    49   1
    59     4    54   1
    60     5    55   1
    61     5    56   1
    62     6    57   1
    63     9    58   1
    64    10    59   1
    65    18    60   1
    66    18    61   1
    67    19    62   1
    68    19    63   1
    69    19    64   1
    70    20    65   1
    71    20    66   1
    72    20    67   1
    73    21    68   1
    74    24    69   1
    75    25    70   1
    76    25    71   1
    77    26    72   1
    78    29    73   1
    79    30    74   1
    80    31    75   1
    81    32    76   1
    82    34    77   1
    83    34    78   1
    84    35    79   1
    85    38    80   1
    86    41    81   1
    87    41    82   1
    88    42    83   1
    89    42    84   1
    90    43    85   1
    91    43    86   1
    92    44    87   1
    93    44    88   1
    94    45    89   1
    95    45    90   1
    96    47    91   1
    97    47    92   1
    98    48    93   1
    99    48    94   1
   100    48    95   1
   101    49    96   1
   102    49    97   1
   103    49    98   1
   104    50    99   1
   105    50   100   1
   106    50   101   1
   107    51   102   1
   108    51   103   1
   109    51   104   1
   110    52   105   1
   111    52   106   1
@<TRIPOS>SUBSTRUCTURE
     1  SU3      1

