@<TRIPOS>MOLECULE
3su5_ligand_076
   106   111
SMALL
GAST_HUCK
****
This file was generated by PARSER (from files_GN.cpp)

@<TRIPOS>ATOM
      1 C         -13.2472  -13.3205   13.8224 C.2         1 SU3       0.2013
      2 N         -13.1522  -11.9594   11.8813 N.am        1 SU3      -0.2469
      3 O         -14.4536  -13.5321   13.8810 O.2         1 SU3      -0.3947
      4 CA        -12.7864  -12.0431   13.2724 C.3         1 SU3       0.1363
      5 CB        -13.4181  -10.7971   13.9368 C.3         1 SU3       0.0206
      6 CG        -14.6086  -10.4338   13.0352 C.3         1 SU3       0.1158
      7 CAF       -12.5132  -12.6289   10.9013 C.2         1 SU3       0.2070
      8 OAG       -11.4500  -13.1740   11.1770 O.2         1 SU3      -0.3942
      9 CAH       -12.9465  -12.7280    9.4995 C.3         1 SU3       0.1378
     10 NAI       -12.0971  -11.8462    8.7481 N.am        1 SU3      -0.2407
     11 CAJ       -12.4814  -10.7845    8.0051 C.2         1 SU3       0.3218
     12 OAK       -11.4991  -10.0861    7.3783 O.3         1 SU3      -0.2633
     13 CAL       -13.0075  -14.1933    8.8855 C.3         1 SU3       0.0025
     14 OAM       -13.7824  -10.4435    7.8544 O.2         1 SU3      -0.3774
     15 CAO       -15.1481   -8.0310   13.6760 C.2         1 SU3       0.4317
     16 OAP       -15.6009   -8.3181   14.9209 O.2         1 SU3      -0.3166
     17 NAQ       -15.0636   -6.7566   13.2235 N.am        1 SU3      -0.2080
     18 CAR       -12.9254  -18.1633   13.9808 C.3         1 SU3      -0.0516
     19 CAS       -11.9099  -19.3155   13.8161 C.3         1 SU3      -0.0651
     20 CAT       -13.8790  -15.1369    9.7823 C.3         1 SU3      -0.0558
     21 NAV       -12.3743  -14.2465   14.1968 N.am        1 SU3      -0.2737
     22 CAX       -12.7004  -15.5453   14.7146 C.3         1 SU3       0.1374
     23 CAY       -13.7856  -15.6416   15.6720 C.2         1 SU3       0.2444
     24 CAZ       -12.2274  -16.7790   13.9019 C.3         1 SU3      -0.0066
     25 CBA       -11.4263  -16.3249   15.1305 C.3         1 SU3      -0.0152
     26 CBB       -15.4329   -5.6322   13.8776 C.2         1 SU3       0.0383
     27 CBC       -15.1325   -4.5337   13.0781 C.ar        1 SU3      -0.0374
     28 CBD       -14.5525   -5.0174   11.9067 C.ar        1 SU3      -0.0293
     29 CBE       -14.5482   -6.4015   12.0231 C.2         1 SU3       0.0366
     30 CBF       -15.3053   -3.1553   13.2798 C.ar        1 SU3      -0.0689
     31 CBG       -14.8858   -2.2722   12.2655 C.ar        1 SU3      -0.0688
     32 CBH       -14.2838   -2.7648   11.0858 C.ar        1 SU3      -0.0606
     33 CBI       -14.0895   -4.1540   10.8875 C.ar        1 SU3      -0.0432
     34 CBJ       -13.4008   -4.6813    9.6761 C.3         1 SU3      -0.0194
     35 NBK       -13.6834  -15.0158   16.8329 N.am        1 SU3      -0.1552
     36 OBL       -14.8186  -16.2000   15.3236 O.2         1 SU3      -0.3404
     37 SBM       -14.8448  -15.0619   18.0537 S.o2        1 SU3       0.0645
     38 CBN       -14.5829  -16.3803   19.2628 C.3         1 SU3       0.1004
     39 OBO       -14.7813  -13.6477   18.7762 O.2         1 SU3      -0.1503
     40 OBP       -16.3240  -15.1100   17.4670 O.2         1 SU3      -0.1503
     41 CBQ       -14.6071  -17.8179   18.7228 C.3         1 SU3      -0.0268
     42 CBR       -13.2851  -17.2011   19.1911 C.3         1 SU3      -0.0268
     43 CBS       -11.9705   -5.2066    9.9929 C.3         1 SU3      -0.0433
     44 CBT       -11.1777   -5.7216    8.7603 C.3         1 SU3      -0.0507
     45 CBU       -11.6814   -7.0780    8.1732 C.3         1 SU3      -0.0453
     46 CBV       -10.8884   -7.6775    6.9501 C.3         1 SU3      -0.0072
     47 CBW       -11.6104   -8.9847    6.4596 C.3         1 SU3       0.0824
     48 CBX       -10.8706   -6.6683    5.7541 C.3         1 SU3      -0.0574
     49 CBY        -9.4148   -8.0247    7.3446 C.3         1 SU3      -0.0574
     50 CBZ       -13.6927  -14.1338    7.4769 C.3         1 SU3      -0.0558
     51 CCA       -11.5982  -14.8427    8.6739 C.3         1 SU3      -0.0558
     52 CD1       -14.2756  -11.0895   11.6766 C.3         1 SU3       0.0677
     53 OD2       -14.7378   -9.0257   12.8475 O.3         1 SU3      -0.2338
     54 H1        -11.7029  -11.9506   13.3828 H           1 SU3       0.0803
     55 H2        -12.6918   -9.9772   13.9298 H           1 SU3       0.0342
     56 H3        -13.7269  -10.9685   14.9719 H           1 SU3       0.0342
     57 H4        -15.5391  -10.8435   13.4395 H           1 SU3       0.0673
     58 H5        -13.9707  -12.3583    9.4466 H           1 SU3       0.0805
     59 H6        -11.1452  -12.0313    8.7794 H           1 SU3       0.1899
     60 H7        -13.4453  -18.2942   14.9368 H           1 SU3       0.0265
     61 H8        -13.6666  -18.2207   13.1791 H           1 SU3       0.0265
     62 H9        -12.4315  -20.2750   13.8540 H           1 SU3       0.0230
     63 H10       -11.1717  -19.2854   14.6196 H           1 SU3       0.0230
     64 H11       -11.3953  -19.2351   12.8540 H           1 SU3       0.0230
     65 H12       -14.0189  -16.1113    9.3101 H           1 SU3       0.0237
     66 H13       -14.8637  -14.7001    9.9533 H           1 SU3       0.0237
     67 H14       -13.4100  -15.3048   10.7520 H           1 SU3       0.0237
     68 H15       -11.4294  -14.0324   14.1018 H           1 SU3       0.1839
     69 H16       -11.7551  -16.5276   12.9476 H           1 SU3       0.0312
     70 H17       -11.4823  -16.9982   15.9902 H           1 SU3       0.0279
     71 H18       -10.4530  -15.9048   14.8652 H           1 SU3       0.0279
     72 H19       -15.8543   -5.5868   14.8096 H           1 SU3       0.0373
     73 H20       -14.1857   -7.0425   11.3123 H           1 SU3       0.0361
     74 H21       -15.7259   -2.8027   14.1417 H           1 SU3       0.0557
     75 H22       -15.0062   -1.2671   12.3842 H           1 SU3       0.0599
     76 H23       -13.9769   -2.0961   10.3775 H           1 SU3       0.0557
     77 H24       -13.3197   -3.8978    8.9182 H           1 SU3       0.0426
     78 H25       -14.0122   -5.4777    9.2475 H           1 SU3       0.0426
     79 H26       -12.8557  -14.5393   17.0213 H           1 SU3       0.2148
     80 H27       -15.0420  -16.2769   20.2493 H           1 SU3       0.0559
     81 H28       -14.6968  -17.9513   17.6417 H           1 SU3       0.0285
     82 H29       -15.0203  -18.5787   19.3869 H           1 SU3       0.0285
     83 H30       -12.9061  -17.6111   20.1275 H           1 SU3       0.0285
     84 H31       -12.5819  -16.9961   18.3806 H           1 SU3       0.0285
     85 H32       -12.0132   -6.0041   10.7373 H           1 SU3       0.0287
     86 H33       -11.4013   -4.3835   10.4353 H           1 SU3       0.0287
     87 H34       -10.1381   -5.8408    9.0707 H           1 SU3       0.0267
     88 H35       -11.2066   -4.9477    7.9921 H           1 SU3       0.0267
     89 H36       -12.7218   -6.9405    7.8691 H           1 SU3       0.0271
     90 H37       -11.6820   -7.8139    8.9828 H           1 SU3       0.0271
     91 H38       -12.6593   -8.7689    6.2364 H           1 SU3       0.0617
     92 H39       -11.1540   -9.3300    5.5280 H           1 SU3       0.0617
     93 H40       -10.3003   -5.7711    5.9983 H           1 SU3       0.0236
     94 H41       -11.8869   -6.3669    5.4897 H           1 SU3       0.0236
     95 H42       -10.4082   -7.1153    4.8714 H           1 SU3       0.0236
     96 H43        -9.3897   -8.6608    8.2321 H           1 SU3       0.0236
     97 H44        -8.8389   -7.1233    7.5594 H           1 SU3       0.0236
     98 H45        -8.9106   -8.5532    6.5330 H           1 SU3       0.0236
     99 H46       -13.1278  -13.4938    6.7942 H           1 SU3       0.0237
    100 H47       -14.7083  -13.7376    7.5525 H           1 SU3       0.0237
    101 H48       -13.7575  -15.1287    7.0266 H           1 SU3       0.0237
    102 H49       -11.0724  -14.9895    9.6137 H           1 SU3       0.0237
    103 H50       -10.9742  -14.2237    8.0295 H           1 SU3       0.0237
    104 H51       -11.6877  -15.8211    8.1983 H           1 SU3       0.0237
    105 H52       -15.1479  -11.6476   11.3205 H           1 SU3       0.0553
    106 H53       -14.0150  -10.3268   10.9340 H           1 SU3       0.0553
@<TRIPOS>BOND
     1     1     3   2
     2     1     4   1
     3    21     1  am
     4     4     2   1
     5     2     7  am
     6     2    52   1
     7     4     5   1
     8     5     6   1
     9     6    52   1
    10     6    53   1
    11     7     8   2
    12     7     9   1
    13     9    10   1
    14     9    13   1
    15    10    11  am
    16    11    12   1
    17    11    14   2
    18    12    47   1
    19    13    20   1
    20    13    50   1
    21    13    51   1
    22    15    16   2
    23    15    17  am
    24    53    15   1
    25    17    26   1
    26    17    29   1
    27    18    19   1
    28    24    18   1
    29    22    21   1
    30    22    23   1
    31    22    24   1
    32    22    25   1
    33    23    35  am
    34    23    36   2
    35    24    25   1
    36    26    27   2
    37    27    28  ar
    38    27    30  ar
    39    28    29   2
    40    28    33  ar
    41    30    31  ar
    42    31    32  ar
    43    32    33  ar
    44    33    34   1
    45    34    43   1
    46    35    37  am
    47    37    38   1
    48    37    39   2
    49    37    40   2
    50    38    41   1
    51    38    42   1
    52    41    42   1
    53    43    44   1
    54    44    45   1
    55    45    46   1
    56    46    47   1
    57    46    48   1
    58    46    49   1
    59     4    54   1
    60     5    55   1
    61     5    56   1
    62     6    57   1
    63     9    58   1
    64    10    59   1
    65    18    60   1
    66    18    61   1
    67    19    62   1
    68    19    63   1
    69    19    64   1
    70    20    65   1
    71    20    66   1
    72    20    67   1
    73    21    68   1
    74    24    69   1
    75    25    70   1
    76    25    71   1
    77    26    72   1
    78    29    73   1
    79    30    74   1
    80    31    75   1
    81    32    76   1
    82    34    77   1
    83    34    78   1
    84    35    79   1
    85    38    80   1
    86    41    81   1
    87    41    82   1
    88    42    83   1
    89    42    84   1
    90    43    85   1
    91    43    86   1
    92    44    87   1
    93    44    88   1
    94    45    89   1
    95    45    90   1
    96    47    91   1
    97    47    92   1
    98    48    93   1
    99    48    94   1
   100    48    95   1
   101    49    96   1
   102    49    97   1
   103    49    98   1
   104    50    99   1
   105    50   100   1
   106    50   101   1
   107    51   102   1
   108    51   103   1
   109    51   104   1
   110    52   105   1
   111    52   106   1
@<TRIPOS>SUBSTRUCTURE
     1  SU3      1

