@<TRIPOS>MOLECULE
3su5_ligand_015
   106   111
SMALL
GAST_HUCK
****
This file was generated by PARSER (from files_GN.cpp)

@<TRIPOS>ATOM
      1 C         -13.8040   -7.7520   12.7888 C.2         1 SU3       0.2013
      2 N         -15.4687   -9.2603   13.6045 N.am        1 SU3      -0.2469
      3 O         -14.5878   -6.8509   12.5069 O.2         1 SU3      -0.3947
      4 CA        -14.1788   -8.6641   13.8716 C.3         1 SU3       0.1363
      5 CB        -13.2763   -9.8983   14.1066 C.3         1 SU3       0.0206
      6 CG        -13.8586  -10.9833   13.1856 C.3         1 SU3       0.1158
      7 CAF       -16.6455   -8.7115   13.9644 C.2         1 SU3       0.2070
      8 OAG       -16.6177   -7.7129   14.6679 O.2         1 SU3      -0.3942
      9 CAH       -17.9808   -9.2708   13.6809 C.3         1 SU3       0.1378
     10 NAI       -18.5164   -9.7532   14.9294 N.am        1 SU3      -0.2407
     11 CAJ       -18.9246  -11.0152   15.1993 C.2         1 SU3       0.3218
     12 OAK       -19.4749  -11.2552   16.4211 O.3         1 SU3      -0.2633
     13 CAL       -19.0023   -8.3174   12.9314 C.3         1 SU3       0.0025
     14 OAM       -18.8558  -11.9995   14.2706 O.2         1 SU3      -0.3774
     15 CAO       -12.7423  -13.1557   13.8283 C.2         1 SU3       0.4317
     16 OAP       -11.6319  -12.9149   13.0867 O.2         1 SU3      -0.3166
     17 NAQ       -12.8261  -14.2379   14.6404 N.am        1 SU3      -0.2080
     18 CAR       -11.1455   -7.4786    8.5329 C.3         1 SU3      -0.0516
     19 CAS       -10.0966   -8.5986    8.3565 C.3         1 SU3      -0.0651
     20 CAT       -19.7547   -7.3274   13.8837 C.3         1 SU3      -0.0558
     21 NAV       -12.6698   -7.8744   12.1018 N.am        1 SU3      -0.2737
     22 CAX       -12.2335   -7.0391   11.0288 C.3         1 SU3       0.1374
     23 CAY       -11.1837   -6.0877   11.3230 C.2         1 SU3       0.2444
     24 CAZ       -12.1458   -7.7972    9.6822 C.3         1 SU3      -0.0066
     25 CBA       -13.2408   -6.7417    9.9001 C.3         1 SU3      -0.0152
     26 CBB       -11.8692  -15.1735   14.8355 C.2         1 SU3       0.0383
     27 CBC       -12.3028  -16.0509   15.8266 C.ar        1 SU3      -0.0374
     28 CBD       -13.5706  -15.6326   16.2278 C.ar        1 SU3      -0.0293
     29 CBE       -13.8707  -14.5196   15.4506 C.2         1 SU3       0.0366
     30 CBF       -11.6807  -17.1590   16.4205 C.ar        1 SU3      -0.0689
     31 CBG       -12.3598  -17.8342   17.4512 C.ar        1 SU3      -0.0688
     32 CBH       -13.6449  -17.4118   17.8634 C.ar        1 SU3      -0.0606
     33 CBI       -14.2804  -16.3004   17.2556 C.ar        1 SU3      -0.0432
     34 CBJ       -15.6418  -15.8618   17.6736 C.3         1 SU3      -0.0194
     35 NBK        -9.9291   -6.5003   11.3141 N.am        1 SU3      -0.1552
     36 OBL       -11.4861   -4.9219   11.5605 O.2         1 SU3      -0.3404
     37 SBM        -8.5483   -5.5429   11.4968 S.o2        1 SU3       0.0645
     38 CBN        -7.7466   -5.6085   13.1176 C.3         1 SU3       0.1004
     39 OBO        -7.4939   -6.0631   10.4285 O.2         1 SU3      -0.1503
     40 OBP        -8.7915   -4.0335   11.0698 O.2         1 SU3      -0.1503
     41 CBQ        -8.6128   -5.8582   14.3554 C.3         1 SU3      -0.0268
     42 CBR        -7.6913   -6.9651   13.8295 C.3         1 SU3      -0.0268
     43 CBS       -15.6298  -14.5524   18.5124 C.3         1 SU3      -0.0433
     44 CBT       -17.0357  -14.0704   18.9707 C.3         1 SU3      -0.0507
     45 CBU       -17.9120  -13.4605   17.8342 C.3         1 SU3      -0.0453
     46 CBV       -19.3905  -13.0468   18.1900 C.3         1 SU3      -0.0072
     47 CBW       -20.0766  -12.4692   16.9023 C.3         1 SU3       0.0824
     48 CBX       -20.2190  -14.2934   18.6486 C.3         1 SU3      -0.0574
     49 CBY       -19.4325  -11.9697   19.3215 C.3         1 SU3      -0.0574
     50 CBZ       -18.2623   -7.4865   11.8302 C.3         1 SU3      -0.0558
     51 CCA       -20.0874   -9.1943   12.2138 C.3         1 SU3      -0.0558
     52 CD1       -15.3375  -10.5755   13.0470 C.3         1 SU3       0.0677
     53 OD2       -13.7607  -12.2680   13.8135 O.3         1 SU3      -0.2338
     54 H1        -14.1755   -8.0901   14.8043 H           1 SU3       0.0803
     55 H2        -13.3698  -10.2076   15.1519 H           1 SU3       0.0342
     56 H3        -12.2196   -9.7061   13.9110 H           1 SU3       0.0342
     57 H4        -13.3666  -10.9808   12.2076 H           1 SU3       0.0673
     58 H5        -17.8528  -10.1152   13.0041 H           1 SU3       0.0805
     59 H6        -18.6339   -9.0969   15.6369 H           1 SU3       0.1899
     60 H7        -11.7155   -7.3894    7.5994 H           1 SU3       0.0265
     61 H8        -10.6313   -6.5239    8.7013 H           1 SU3       0.0265
     62 H9         -9.4575   -8.3710    7.5015 H           1 SU3       0.0230
     63 H10       -10.5930   -9.5539    8.1798 H           1 SU3       0.0230
     64 H11        -9.4704   -8.6827    9.2451 H           1 SU3       0.0230
     65 H12       -20.4432   -6.6945   13.3188 H           1 SU3       0.0237
     66 H13       -19.0641   -6.6676   14.4076 H           1 SU3       0.0237
     67 H14       -20.3403   -7.8697   14.6275 H           1 SU3       0.0237
     68 H15       -12.0812   -8.6110   12.3371 H           1 SU3       0.1839
     69 H16       -12.5611   -8.8054    9.6735 H           1 SU3       0.0312
     70 H17       -13.1262   -5.7787    9.3948 H           1 SU3       0.0279
     71 H18       -14.2526   -7.1369   10.0369 H           1 SU3       0.0279
     72 H19       -10.9569  -15.2148   14.3772 H           1 SU3       0.0373
     73 H20       -14.7376  -13.9781   15.5195 H           1 SU3       0.0361
     74 H21       -10.7469  -17.4568   16.1251 H           1 SU3       0.0557
     75 H22       -11.9185  -18.6334   17.9099 H           1 SU3       0.0599
     76 H23       -14.1082  -17.9205   18.6190 H           1 SU3       0.0557
     77 H24       -16.1201  -16.6445   18.2690 H           1 SU3       0.0426
     78 H25       -16.2484  -15.7362   16.7755 H           1 SU3       0.0426
     79 H26        -9.7723   -7.4447   11.1430 H           1 SU3       0.2148
     80 H27        -6.8661   -4.9810   13.2742 H           1 SU3       0.0559
     81 H28        -9.6811   -6.0032   14.1886 H           1 SU3       0.0285
     82 H29        -8.2763   -5.3347   15.2500 H           1 SU3       0.0285
     83 H30        -6.8036   -7.1552   14.4382 H           1 SU3       0.0285
     84 H31        -8.2018   -7.8077   13.3573 H           1 SU3       0.0285
     85 H32       -15.1437  -13.7470   17.9587 H           1 SU3       0.0287
     86 H33       -15.0315  -14.7372   19.4081 H           1 SU3       0.0287
     87 H34       -16.8896  -13.3087   19.7396 H           1 SU3       0.0267
     88 H35       -17.5490  -14.9125   19.4347 H           1 SU3       0.0267
     89 H36       -17.9573  -14.1801   17.0142 H           1 SU3       0.0271
     90 H37       -17.3827  -12.5819   17.4526 H           1 SU3       0.0271
     91 H38       -20.0852  -13.2328   16.1198 H           1 SU3       0.0617
     92 H39       -21.1199  -12.2280   17.1175 H           1 SU3       0.0617
     93 H40       -19.8517  -14.6906   19.5948 H           1 SU3       0.0236
     94 H41       -20.1672  -15.0894   17.9030 H           1 SU3       0.0236
     95 H42       -21.2695  -14.0309   18.7909 H           1 SU3       0.0236
     96 H43       -18.8084  -11.1116   19.0642 H           1 SU3       0.0236
     97 H44       -19.0769  -12.3785   20.2689 H           1 SU3       0.0236
     98 H45       -20.4530  -11.6142   19.4789 H           1 SU3       0.0236
     99 H46       -17.7133   -8.1441   11.1520 H           1 SU3       0.0237
    100 H47       -17.5501   -6.7909   12.2783 H           1 SU3       0.0237
    101 H48       -18.9692   -6.9012   11.2370 H           1 SU3       0.0237
    102 H49       -20.6434   -9.7965   12.9356 H           1 SU3       0.0237
    103 H50       -19.6268   -9.8735   11.4927 H           1 SU3       0.0237
    104 H51       -20.8056   -8.5726   11.6743 H           1 SU3       0.0237
    105 H52       -15.6429  -10.5819   11.9962 H           1 SU3       0.0553
    106 H53       -15.9551  -11.2866   13.6042 H           1 SU3       0.0553
@<TRIPOS>BOND
     1     1     3   2
     2     1     4   1
     3    21     1  am
     4     4     2   1
     5     2     7  am
     6     2    52   1
     7     4     5   1
     8     5     6   1
     9     6    52   1
    10     6    53   1
    11     7     8   2
    12     7     9   1
    13     9    10   1
    14     9    13   1
    15    10    11  am
    16    11    12   1
    17    11    14   2
    18    12    47   1
    19    13    20   1
    20    13    50   1
    21    13    51   1
    22    15    16   2
    23    15    17  am
    24    53    15   1
    25    17    26   1
    26    17    29   1
    27    18    19   1
    28    24    18   1
    29    22    21   1
    30    22    23   1
    31    22    24   1
    32    22    25   1
    33    23    35  am
    34    23    36   2
    35    24    25   1
    36    26    27   2
    37    27    28  ar
    38    27    30  ar
    39    28    29   2
    40    28    33  ar
    41    30    31  ar
    42    31    32  ar
    43    32    33  ar
    44    33    34   1
    45    34    43   1
    46    35    37  am
    47    37    38   1
    48    37    39   2
    49    37    40   2
    50    38    41   1
    51    38    42   1
    52    41    42   1
    53    43    44   1
    54    44    45   1
    55    45    46   1
    56    46    47   1
    57    46    48   1
    58    46    49   1
    59     4    54   1
    60     5    55   1
    61     5    56   1
    62     6    57   1
    63     9    58   1
    64    10    59   1
    65    18    60   1
    66    18    61   1
    67    19    62   1
    68    19    63   1
    69    19    64   1
    70    20    65   1
    71    20    66   1
    72    20    67   1
    73    21    68   1
    74    24    69   1
    75    25    70   1
    76    25    71   1
    77    26    72   1
    78    29    73   1
    79    30    74   1
    80    31    75   1
    81    32    76   1
    82    34    77   1
    83    34    78   1
    84    35    79   1
    85    38    80   1
    86    41    81   1
    87    41    82   1
    88    42    83   1
    89    42    84   1
    90    43    85   1
    91    43    86   1
    92    44    87   1
    93    44    88   1
    94    45    89   1
    95    45    90   1
    96    47    91   1
    97    47    92   1
    98    48    93   1
    99    48    94   1
   100    48    95   1
   101    49    96   1
   102    49    97   1
   103    49    98   1
   104    50    99   1
   105    50   100   1
   106    50   101   1
   107    51   102   1
   108    51   103   1
   109    51   104   1
   110    52   105   1
   111    52   106   1
@<TRIPOS>SUBSTRUCTURE
     1  SU3      1

