@<TRIPOS>MOLECULE
3u9q_ligand_018
    31    30
SMALL
GAST_HUCK
****
This file was generated by PARSER (from files_GN.cpp)

@<TRIPOS>ATOM
      1 C1          4.3330    4.2101   20.6964 C.2         1 DKA       0.0348
      2 O1          4.2855    3.3082   19.6875 O.co2       1 DKA      -0.5690
      3 C2          3.4199    5.3569   20.7634 C.3         1 DKA       0.0002
      4 C3          2.9631    5.6905   22.2178 C.3         1 DKA      -0.0414
      5 C4          1.6247    5.0634   22.6887 C.3         1 DKA      -0.0516
      6 C5          1.2849    3.6104   22.2567 C.3         1 DKA      -0.0530
      7 C6          2.1926    2.4808   22.8207 C.3         1 DKA      -0.0531
      8 C7          1.5980    1.0751   22.5269 C.3         1 DKA      -0.0531
      9 C8          2.1439   -0.0646   23.4373 C.3         1 DKA      -0.0533
     10 C9          1.2600   -1.3456   23.4476 C.3         1 DKA      -0.0559
     11 C10         0.0492   -1.2690   24.4134 C.3         1 DKA      -0.0653
     12 O2          5.3264    4.0883   21.6140 O.co2       1 DKA      -0.5690
     13 H1          2.5520    5.1881   20.1261 H           1 DKA       0.0430
     14 H2          3.9699    6.2075   20.3555 H           1 DKA       0.0430
     15 H3          2.8370    6.7786   22.2659 H           1 DKA       0.0283
     16 H4          3.7571    5.4453   22.9376 H           1 DKA       0.0283
     17 H5          0.8244    5.7060   22.3179 H           1 DKA       0.0266
     18 H6          1.5927    5.1289   23.7811 H           1 DKA       0.0266
     19 H7          1.2838    3.5658   21.1658 H           1 DKA       0.0265
     20 H8          0.2603    3.4226   22.5925 H           1 DKA       0.0265
     21 H9          2.2986    2.6085   23.8993 H           1 DKA       0.0265
     22 H10         3.1851    2.5629   22.3773 H           1 DKA       0.0265
     23 H11         1.8013    0.8069   21.4876 H           1 DKA       0.0265
     24 H12         0.5159    1.1320   22.6425 H           1 DKA       0.0265
     25 H13         2.2600    0.2844   24.4661 H           1 DKA       0.0265
     26 H14         3.1361   -0.3474   23.0770 H           1 DKA       0.0265
     27 H15         1.8748   -2.1982   23.7612 H           1 DKA       0.0263
     28 H16         0.9003   -1.5569   22.4357 H           1 DKA       0.0263
     29 H17        -0.5480   -2.1827   24.3419 H           1 DKA       0.0230
     30 H18        -0.5932   -0.4237   24.1672 H           1 DKA       0.0230
     31 H19         0.3982   -1.1587   25.4430 H           1 DKA       0.0230
@<TRIPOS>BOND
     1     1     2  ar
     2     1     3   1
     3     1    12  ar
     4     3     4   1
     5     4     5   1
     6     5     6   1
     7     6     7   1
     8     7     8   1
     9     8     9   1
    10     9    10   1
    11    10    11   1
    12     3    13   1
    13     3    14   1
    14     4    15   1
    15     4    16   1
    16     5    17   1
    17     5    18   1
    18     6    19   1
    19     6    20   1
    20     7    21   1
    21     7    22   1
    22     8    23   1
    23     8    24   1
    24     9    25   1
    25     9    26   1
    26    10    27   1
    27    10    28   1
    28    11    29   1
    29    11    30   1
    30    11    31   1
@<TRIPOS>SUBSTRUCTURE
     1  DKA      1

