@<TRIPOS>MOLECULE
3u9q_ligand_023
    31    30
SMALL
GAST_HUCK
****
This file was generated by PARSER (from files_GN.cpp)

@<TRIPOS>ATOM
      1 C1          2.2119    5.9446   21.4094 C.2         1 DKA       0.0348
      2 O1          3.0806    6.8991   21.0141 O.co2       1 DKA      -0.5690
      3 C2          2.1128    5.5356   22.8217 C.3         1 DKA       0.0002
      4 C3          2.5662    4.0669   23.0608 C.3         1 DKA      -0.0414
      5 C4          3.9846    3.7609   22.4952 C.3         1 DKA      -0.0516
      6 C5          4.4945    2.3166   22.7514 C.3         1 DKA      -0.0530
      7 C6          3.9300    1.2351   21.7838 C.3         1 DKA      -0.0531
      8 C7          4.6137   -0.1571   21.9398 C.3         1 DKA      -0.0531
      9 C8          4.6937   -0.9532   20.6090 C.3         1 DKA      -0.0533
     10 C9          5.2948   -2.3741   20.7749 C.3         1 DKA      -0.0559
     11 C10         5.2864   -3.1938   19.4623 C.3         1 DKA      -0.0653
     12 O2          1.4846    5.2981   20.4637 O.co2       1 DKA      -0.5690
     13 H1          1.0732    5.6476   23.1398 H           1 DKA       0.0430
     14 H2          2.7176    6.2072   23.4465 H           1 DKA       0.0430
     15 H3          1.8330    3.3834   22.6177 H           1 DKA       0.0283
     16 H4          2.5735    3.8874   24.1395 H           1 DKA       0.0283
     17 H5          4.6875    4.4624   22.9544 H           1 DKA       0.0266
     18 H6          3.9935    3.9557   21.4178 H           1 DKA       0.0266
     19 H7          4.2925    2.0412   23.7921 H           1 DKA       0.0265
     20 H8          5.5780    2.3469   22.6202 H           1 DKA       0.0265
     21 H9          4.0578    1.5970   20.7632 H           1 DKA       0.0265
     22 H10         2.8551    1.1252   21.9583 H           1 DKA       0.0265
     23 H11         4.0458   -0.7382   22.6723 H           1 DKA       0.0265
     24 H12         5.6275   -0.0348   22.3253 H           1 DKA       0.0265
     25 H13         5.3190   -0.3921   19.9116 H           1 DKA       0.0265
     26 H14         3.6922   -1.0330   20.1786 H           1 DKA       0.0265
     27 H15         4.7273   -2.9205   21.5310 H           1 DKA       0.0263
     28 H16         6.3269   -2.2944   21.1202 H           1 DKA       0.0263
     29 H17         5.6689   -4.1962   19.6539 H           1 DKA       0.0230
     30 H18         5.9134   -2.7174   18.7109 H           1 DKA       0.0230
     31 H19         4.2721   -3.2834   19.0723 H           1 DKA       0.0230
@<TRIPOS>BOND
     1     1     2  ar
     2     1     3   1
     3     1    12  ar
     4     3     4   1
     5     4     5   1
     6     5     6   1
     7     6     7   1
     8     7     8   1
     9     8     9   1
    10     9    10   1
    11    10    11   1
    12     3    13   1
    13     3    14   1
    14     4    15   1
    15     4    16   1
    16     5    17   1
    17     5    18   1
    18     6    19   1
    19     6    20   1
    20     7    21   1
    21     7    22   1
    22     8    23   1
    23     8    24   1
    24     9    25   1
    25     9    26   1
    26    10    27   1
    27    10    28   1
    28    11    29   1
    29    11    30   1
    30    11    31   1
@<TRIPOS>SUBSTRUCTURE
     1  DKA      1

