@<TRIPOS>MOLECULE
3u9q_ligand_017
    31    30
SMALL
GAST_HUCK
****
This file was generated by PARSER (from files_GN.cpp)

@<TRIPOS>ATOM
      1 C1          4.2122   -0.8673   18.5488 C.2         1 DKA       0.0348
      2 O1          2.8932   -1.1508   18.4222 O.co2       1 DKA      -0.5690
      3 C2          4.6992    0.4214   19.0999 C.3         1 DKA       0.0002
      4 C3          3.6142    1.4676   19.5068 C.3         1 DKA      -0.0414
      5 C4          2.8574    1.2156   20.8475 C.3         1 DKA      -0.0516
      6 C5          3.7115    1.0017   22.1305 C.3         1 DKA      -0.0530
      7 C6          4.3578    2.2425   22.8403 C.3         1 DKA      -0.0531
      8 C7          3.8474    3.6704   22.4822 C.3         1 DKA      -0.0531
      9 C8          2.4582    4.0384   23.1042 C.3         1 DKA      -0.0533
     10 C9          1.8951    5.4199   22.6484 C.3         1 DKA      -0.0559
     11 C10         1.6015    5.5207   21.1322 C.3         1 DKA      -0.0653
     12 O2          5.1069   -1.6752   17.9305 O.co2       1 DKA      -0.5690
     13 H1          5.3272    0.8860   18.3165 H           1 DKA       0.0430
     14 H2          5.3523    0.2209   19.9673 H           1 DKA       0.0430
     15 H3          2.8592    1.5183   18.7144 H           1 DKA       0.0283
     16 H4          4.0996    2.4619   19.5389 H           1 DKA       0.0283
     17 H5          2.2371    0.3174   20.7240 H           1 DKA       0.0266
     18 H6          2.1843    2.0665   21.0152 H           1 DKA       0.0266
     19 H7          4.5275    0.2881   21.9075 H           1 DKA       0.0265
     20 H8          3.0588    0.5057   22.8680 H           1 DKA       0.0265
     21 H9          5.4396    2.2279   22.6488 H           1 DKA       0.0265
     22 H10         4.2309    2.0964   23.9336 H           1 DKA       0.0265
     23 H11         3.8056    3.7563   21.3896 H           1 DKA       0.0265
     24 H12         4.5934    4.3875   22.8530 H           1 DKA       0.0265
     25 H13         2.5702    4.0624   24.1995 H           1 DKA       0.0265
     26 H14         1.7181    3.2684   22.8565 H           1 DKA       0.0265
     27 H15         2.5839    6.2253   22.9489 H           1 DKA       0.0263
     28 H16         0.9492    5.5871   23.1776 H           1 DKA       0.0263
     29 H17         1.0282    6.4307   20.9292 H           1 DKA       0.0230
     30 H18         1.0291    4.6589   20.7914 H           1 DKA       0.0230
     31 H19         2.5442    5.5766   20.5722 H           1 DKA       0.0230
@<TRIPOS>BOND
     1     1     2  ar
     2     1     3   1
     3     1    12  ar
     4     3     4   1
     5     4     5   1
     6     5     6   1
     7     6     7   1
     8     7     8   1
     9     8     9   1
    10     9    10   1
    11    10    11   1
    12     3    13   1
    13     3    14   1
    14     4    15   1
    15     4    16   1
    16     5    17   1
    17     5    18   1
    18     6    19   1
    19     6    20   1
    20     7    21   1
    21     7    22   1
    22     8    23   1
    23     8    24   1
    24     9    25   1
    25     9    26   1
    26    10    27   1
    27    10    28   1
    28    11    29   1
    29    11    30   1
    30    11    31   1
@<TRIPOS>SUBSTRUCTURE
     1  DKA      1

