@<TRIPOS>MOLECULE
3u9q_ligand_019
    31    30
SMALL
GAST_HUCK
****
This file was generated by PARSER (from files_GN.cpp)

@<TRIPOS>ATOM
      1 C1          0.4033   -4.5899   26.2305 C.2         1 DKA       0.0348
      2 O1          0.4148   -4.8641   24.8971 O.co2       1 DKA      -0.5690
      3 C2         -0.3613   -3.4417   26.7544 C.3         1 DKA       0.0002
      4 C3          0.4976   -2.1405   26.8728 C.3         1 DKA      -0.0414
      5 C4          1.1086   -1.6134   25.5398 C.3         1 DKA      -0.0516
      6 C5          0.0382   -1.2706   24.4608 C.3         1 DKA      -0.0530
      7 C6          0.4946   -0.2648   23.3706 C.3         1 DKA      -0.0531
      8 C7          1.0757   -0.8798   22.0560 C.3         1 DKA      -0.0531
      9 C8          2.6028   -0.6587   21.8666 C.3         1 DKA      -0.0533
     10 C9          3.0019    0.8312   21.5639 C.3         1 DKA      -0.0559
     11 C10         4.2172    1.3270   22.3888 C.3         1 DKA      -0.0653
     12 O2          1.2248   -5.2939   27.0557 O.co2       1 DKA      -0.5690
     13 H1         -0.7364   -3.7010   27.7500 H           1 DKA       0.0430
     14 H2         -1.2272   -3.2469   26.1118 H           1 DKA       0.0430
     15 H3          1.3132   -2.3187   27.5904 H           1 DKA       0.0283
     16 H4         -0.1400   -1.3546   27.3004 H           1 DKA       0.0283
     17 H5          1.8104   -2.3555   25.1332 H           1 DKA       0.0266
     18 H6          1.6821   -0.7045   25.7807 H           1 DKA       0.0266
     19 H7         -0.8351   -0.8295   24.9640 H           1 DKA       0.0265
     20 H8         -0.3008   -2.1931   23.9798 H           1 DKA       0.0265
     21 H9          1.2115    0.4351   23.8201 H           1 DKA       0.0265
     22 H10        -0.3751    0.3385   23.0995 H           1 DKA       0.0265
     23 H11         0.5670   -0.4446   21.1990 H           1 DKA       0.0265
     24 H12         0.8821   -1.9548   22.0310 H           1 DKA       0.0265
     25 H13         2.9364   -1.2767   21.0203 H           1 DKA       0.0265
     26 H14         3.1345   -1.0365   22.7538 H           1 DKA       0.0265
     27 H15         2.1718    1.5125   21.7456 H           1 DKA       0.0263
     28 H16         3.2577    0.9288   20.4955 H           1 DKA       0.0263
     29 H17         4.4555    2.3604   22.1116 H           1 DKA       0.0230
     30 H18         5.0934    0.7010   22.1982 H           1 DKA       0.0230
     31 H19         3.9848    1.2994   23.4596 H           1 DKA       0.0230
@<TRIPOS>BOND
     1     1     2  ar
     2     1     3   1
     3     1    12  ar
     4     3     4   1
     5     4     5   1
     6     5     6   1
     7     6     7   1
     8     7     8   1
     9     8     9   1
    10     9    10   1
    11    10    11   1
    12     3    13   1
    13     3    14   1
    14     4    15   1
    15     4    16   1
    16     5    17   1
    17     5    18   1
    18     6    19   1
    19     6    20   1
    20     7    21   1
    21     7    22   1
    22     8    23   1
    23     8    24   1
    24     9    25   1
    25     9    26   1
    26    10    27   1
    27    10    28   1
    28    11    29   1
    29    11    30   1
    30    11    31   1
@<TRIPOS>SUBSTRUCTURE
     1  DKA      1

