@<TRIPOS>MOLECULE
3u9q_ligand_006
    31    30
SMALL
GAST_HUCK
****
This file was generated by PARSER (from files_GN.cpp)

@<TRIPOS>ATOM
      1 C1          1.8705    5.0659   21.2735 C.2         1 DKA       0.0348
      2 O1          0.9278    5.7008   22.0208 O.co2       1 DKA      -0.5690
      3 C2          3.2433    4.9124   21.8016 C.3         1 DKA       0.0002
      4 C3          3.5213    3.4917   22.3714 C.3         1 DKA      -0.0414
      5 C4          2.5543    3.0632   23.5066 C.3         1 DKA      -0.0516
      6 C5          2.9458    1.7777   24.2943 C.3         1 DKA      -0.0530
      7 C6          2.4552    0.4205   23.7141 C.3         1 DKA      -0.0531
      8 C7          3.2479   -0.1369   22.4884 C.3         1 DKA      -0.0531
      9 C8          2.4427   -0.2594   21.1655 C.3         1 DKA      -0.0533
     10 C9          1.3868   -1.4072   21.1507 C.3         1 DKA      -0.0559
     11 C10         1.1783   -2.0476   19.7598 C.3         1 DKA      -0.0653
     12 O2          1.6300    4.9517   19.9571 O.co2       1 DKA      -0.5690
     13 H1          3.4158    5.6568   22.5850 H           1 DKA       0.0430
     14 H2          3.9571    5.1149   20.9980 H           1 DKA       0.0430
     15 H3          4.5488    3.4843   22.7565 H           1 DKA       0.0283
     16 H4          3.4648    2.7728   21.5575 H           1 DKA       0.0283
     17 H5          1.5562    2.9370   23.0935 H           1 DKA       0.0266
     18 H6          2.5025    3.8841   24.2340 H           1 DKA       0.0266
     19 H7          2.5048    1.8773   25.2928 H           1 DKA       0.0265
     20 H8          4.0304    1.7482   24.4412 H           1 DKA       0.0265
     21 H9          1.3866    0.4856   23.4908 H           1 DKA       0.0265
     22 H10         2.5417   -0.3138   24.5240 H           1 DKA       0.0265
     23 H11         3.6323   -1.1290   22.7432 H           1 DKA       0.0265
     24 H12         4.1258    0.4847   22.3046 H           1 DKA       0.0265
     25 H13         3.1676   -0.4256   20.3635 H           1 DKA       0.0265
     26 H14         1.9390    0.6865   20.9490 H           1 DKA       0.0265
     27 H15         0.4273   -1.0231   21.5080 H           1 DKA       0.0263
     28 H16         1.6915   -2.2017   21.8385 H           1 DKA       0.0263
     29 H17         0.4718   -2.8691   19.8354 H           1 DKA       0.0230
     30 H18         2.1230   -2.4456   19.3750 H           1 DKA       0.0230
     31 H19         0.7898   -1.3225   19.0416 H           1 DKA       0.0230
@<TRIPOS>BOND
     1     1     2  ar
     2     1     3   1
     3     1    12  ar
     4     3     4   1
     5     4     5   1
     6     5     6   1
     7     6     7   1
     8     7     8   1
     9     8     9   1
    10     9    10   1
    11    10    11   1
    12     3    13   1
    13     3    14   1
    14     4    15   1
    15     4    16   1
    16     5    17   1
    17     5    18   1
    18     6    19   1
    19     6    20   1
    20     7    21   1
    21     7    22   1
    22     8    23   1
    23     8    24   1
    24     9    25   1
    25     9    26   1
    26    10    27   1
    27    10    28   1
    28    11    29   1
    29    11    30   1
    30    11    31   1
@<TRIPOS>SUBSTRUCTURE
     1  DKA      1

