@<TRIPOS>MOLECULE
3u9q_ligand_007
    31    30
SMALL
GAST_HUCK
****
This file was generated by PARSER (from files_GN.cpp)

@<TRIPOS>ATOM
      1 C1          4.1797    0.4803   19.9050 C.2         1 DKA       0.0348
      2 O1          4.1920    1.6787   20.5027 O.co2       1 DKA      -0.5690
      3 C2          5.0671    0.2224   18.7397 C.3         1 DKA       0.0002
      4 C3          6.1771   -0.8234   19.0096 C.3         1 DKA      -0.0414
      5 C4          7.5647   -0.2231   19.3447 C.3         1 DKA      -0.0516
      6 C5          8.7338   -1.1762   18.9928 C.3         1 DKA      -0.0530
      7 C6         10.0535   -0.4340   18.6308 C.3         1 DKA      -0.0531
      8 C7         11.1315   -1.3184   17.9334 C.3         1 DKA      -0.0531
      9 C8         10.9377   -1.5431   16.4020 C.3         1 DKA      -0.0533
     10 C9         10.6384   -3.0032   15.9688 C.3         1 DKA      -0.0559
     11 C10        11.6644   -4.0590   16.4661 C.3         1 DKA      -0.0653
     12 O2          3.0279   -0.2443   19.9999 O.co2       1 DKA      -0.5690
     13 H1          5.5207    1.1672   18.4149 H           1 DKA       0.0430
     14 H2          4.4372   -0.1284   17.9133 H           1 DKA       0.0430
     15 H3          6.2760   -1.4232   18.1025 H           1 DKA       0.0283
     16 H4          5.8548   -1.4850   19.8116 H           1 DKA       0.0283
     17 H5          7.6157   -0.0027   20.4118 H           1 DKA       0.0266
     18 H6          7.6817    0.7065   18.7943 H           1 DKA       0.0266
     19 H7          8.4420   -1.8012   18.1459 H           1 DKA       0.0265
     20 H8          8.9342   -1.8547   19.8275 H           1 DKA       0.0265
     21 H9         10.4874   -0.0191   19.5570 H           1 DKA       0.0265
     22 H10         9.8297    0.4178   17.9771 H           1 DKA       0.0265
     23 H11        11.1830   -2.2740   18.4620 H           1 DKA       0.0265
     24 H12        12.0891   -0.8132   18.0830 H           1 DKA       0.0265
     25 H13        11.8328   -1.2118   15.8793 H           1 DKA       0.0265
     26 H14        10.1244   -0.9178   16.0403 H           1 DKA       0.0265
     27 H15        10.6474   -3.0384   14.8749 H           1 DKA       0.0263
     28 H16         9.6377   -3.3070   16.3067 H           1 DKA       0.0263
     29 H17        11.4566   -5.0254   15.9862 H           1 DKA       0.0230
     30 H18        11.5988   -4.1896   17.5534 H           1 DKA       0.0230
     31 H19        12.6880   -3.7608   16.2011 H           1 DKA       0.0230
@<TRIPOS>BOND
     1     1     2  ar
     2     1     3   1
     3     1    12  ar
     4     3     4   1
     5     4     5   1
     6     5     6   1
     7     6     7   1
     8     7     8   1
     9     8     9   1
    10     9    10   1
    11    10    11   1
    12     3    13   1
    13     3    14   1
    14     4    15   1
    15     4    16   1
    16     5    17   1
    17     5    18   1
    18     6    19   1
    19     6    20   1
    20     7    21   1
    21     7    22   1
    22     8    23   1
    23     8    24   1
    24     9    25   1
    25     9    26   1
    26    10    27   1
    27    10    28   1
    28    11    29   1
    29    11    30   1
    30    11    31   1
@<TRIPOS>SUBSTRUCTURE
     1  DKA      1

