@<TRIPOS>MOLECULE
3u9q_ligand_031
    31    30
SMALL
GAST_HUCK
****
This file was generated by PARSER (from files_GN.cpp)

@<TRIPOS>ATOM
      1 C1          4.0084   -2.1391   18.3646 C.2         1 DKA       0.0348
      2 O1          5.1825   -2.2374   17.6952 O.co2       1 DKA      -0.5690
      3 C2          3.8163   -1.0599   19.3523 C.3         1 DKA       0.0002
      4 C3          3.6763    0.3326   18.6823 C.3         1 DKA      -0.0414
      5 C4          3.4259    1.4620   19.7219 C.3         1 DKA      -0.0516
      6 C5          3.5405    2.8897   19.1161 C.3         1 DKA      -0.0530
      7 C6          3.5512    4.0675   20.1411 C.3         1 DKA      -0.0531
      8 C7          2.2200    4.4144   20.8854 C.3         1 DKA      -0.0531
      9 C8          1.8464    3.5825   22.1493 C.3         1 DKA      -0.0533
     10 C9          2.8099    3.7299   23.3734 C.3         1 DKA      -0.0559
     11 C10         3.1123    2.3861   24.0794 C.3         1 DKA      -0.0653
     12 O2          2.9408   -2.7980   17.8720 O.co2       1 DKA      -0.5690
     13 H1          4.6710   -1.0490   20.0330 H           1 DKA       0.0430
     14 H2          2.9193   -1.2763   19.9425 H           1 DKA       0.0430
     15 H3          2.8428    0.3157   17.9735 H           1 DKA       0.0283
     16 H4          4.5976    0.5467   18.1223 H           1 DKA       0.0283
     17 H5          4.1533    1.3694   20.5337 H           1 DKA       0.0266
     18 H6          2.4248    1.3264   20.1358 H           1 DKA       0.0266
     19 H7          2.7369    3.0420   18.3892 H           1 DKA       0.0265
     20 H8          4.4884    2.9453   18.5714 H           1 DKA       0.0265
     21 H9          3.8261    4.9581   19.5686 H           1 DKA       0.0265
     22 H10         4.3491    3.8987   20.8706 H           1 DKA       0.0265
     23 H11         1.3906    4.3456   20.1645 H           1 DKA       0.0265
     24 H12         2.2700    5.4629   21.1916 H           1 DKA       0.0265
     25 H13         1.7470    2.5322   21.8631 H           1 DKA       0.0265
     26 H14         0.8479    3.9026   22.4663 H           1 DKA       0.0265
     27 H15         2.3490    4.4094   24.1051 H           1 DKA       0.0263
     28 H16         3.7633    4.1794   23.0730 H           1 DKA       0.0263
     29 H17         3.7692    2.5576   24.9332 H           1 DKA       0.0230
     30 H18         3.6128    1.6980   23.3904 H           1 DKA       0.0230
     31 H19         2.1846    1.9254   24.4320 H           1 DKA       0.0230
@<TRIPOS>BOND
     1     1     2  ar
     2     1     3   1
     3     1    12  ar
     4     3     4   1
     5     4     5   1
     6     5     6   1
     7     6     7   1
     8     7     8   1
     9     8     9   1
    10     9    10   1
    11    10    11   1
    12     3    13   1
    13     3    14   1
    14     4    15   1
    15     4    16   1
    16     5    17   1
    17     5    18   1
    18     6    19   1
    19     6    20   1
    20     7    21   1
    21     7    22   1
    22     8    23   1
    23     8    24   1
    24     9    25   1
    25     9    26   1
    26    10    27   1
    27    10    28   1
    28    11    29   1
    29    11    30   1
    30    11    31   1
@<TRIPOS>SUBSTRUCTURE
     1  DKA      1

