@<TRIPOS>MOLECULE
3u9q_ligand_021
    31    30
SMALL
GAST_HUCK
****
This file was generated by PARSER (from files_GN.cpp)

@<TRIPOS>ATOM
      1 C1          2.9108    1.2090   21.4261 C.2         1 DKA       0.0348
      2 O1          4.1028    1.7119   21.0270 O.co2       1 DKA      -0.5690
      3 C2          2.7614   -0.2491   21.6195 C.3         1 DKA       0.0002
      4 C3          1.3450   -0.7301   22.0392 C.3         1 DKA      -0.0414
      5 C4          0.9867   -0.4590   23.5274 C.3         1 DKA      -0.0516
      6 C5          1.6828   -1.4241   24.5464 C.3         1 DKA      -0.0530
      7 C6          0.7705   -2.0331   25.6563 C.3         1 DKA      -0.0531
      8 C7         -0.4902   -2.8375   25.2014 C.3         1 DKA      -0.0531
      9 C8         -0.2484   -4.0264   24.2201 C.3         1 DKA      -0.0533
     10 C9          0.2276   -5.3399   24.8988 C.3         1 DKA      -0.0559
     11 C10        -0.9261   -6.1783   25.4951 C.3         1 DKA      -0.0653
     12 O2          1.8832    2.0792   21.5756 O.co2       1 DKA      -0.5690
     13 H1          3.4951   -0.5782   22.3607 H           1 DKA       0.0430
     14 H2          3.0193   -0.7298   20.6730 H           1 DKA       0.0430
     15 H3          1.2609   -1.8015   21.8447 H           1 DKA       0.0283
     16 H4          0.6027   -0.2478   21.4027 H           1 DKA       0.0283
     17 H5         -0.0983   -0.5221   23.6114 H           1 DKA       0.0266
     18 H6          1.2428    0.5677   23.7879 H           1 DKA       0.0266
     19 H7          2.4891   -0.8764   25.0445 H           1 DKA       0.0265
     20 H8          2.1743   -2.2489   24.0283 H           1 DKA       0.0265
     21 H9          0.4348   -1.2182   26.3040 H           1 DKA       0.0265
     22 H10         1.3884   -2.6927   26.2773 H           1 DKA       0.0265
     23 H11        -1.1961   -2.1507   24.7363 H           1 DKA       0.0265
     24 H12        -0.9955   -3.2067   26.0989 H           1 DKA       0.0265
     25 H13         0.4794   -3.7404   23.4631 H           1 DKA       0.0265
     26 H14        -1.1753   -4.2266   23.6774 H           1 DKA       0.0265
     27 H15         0.9528   -5.1153   25.6844 H           1 DKA       0.0263
     28 H16         0.7300   -5.9528   24.1525 H           1 DKA       0.0263
     29 H17        -0.5241   -7.0672   25.9869 H           1 DKA       0.0230
     30 H18        -1.6113   -6.4984   24.7074 H           1 DKA       0.0230
     31 H19        -1.4860   -5.5974   26.2339 H           1 DKA       0.0230
@<TRIPOS>BOND
     1     1     2  ar
     2     1     3   1
     3     1    12  ar
     4     3     4   1
     5     4     5   1
     6     5     6   1
     7     6     7   1
     8     7     8   1
     9     8     9   1
    10     9    10   1
    11    10    11   1
    12     3    13   1
    13     3    14   1
    14     4    15   1
    15     4    16   1
    16     5    17   1
    17     5    18   1
    18     6    19   1
    19     6    20   1
    20     7    21   1
    21     7    22   1
    22     8    23   1
    23     8    24   1
    24     9    25   1
    25     9    26   1
    26    10    27   1
    27    10    28   1
    28    11    29   1
    29    11    30   1
    30    11    31   1
@<TRIPOS>SUBSTRUCTURE
     1  DKA      1

