@<TRIPOS>MOLECULE
3u9q_ligand_014
    31    30
SMALL
GAST_HUCK
****
This file was generated by PARSER (from files_GN.cpp)

@<TRIPOS>ATOM
      1 C1          3.7869    2.3343   22.2281 C.2         1 DKA       0.0348
      2 O1          4.0535    2.3629   20.9059 O.co2       1 DKA      -0.5690
      3 C2          2.3996    2.3504   22.7225 C.3         1 DKA       0.0002
      4 C3          1.5909    1.0864   22.3241 C.3         1 DKA      -0.0414
      5 C4          2.1372   -0.2265   22.9568 C.3         1 DKA      -0.0516
      6 C5          1.3759   -1.5045   22.5166 C.3         1 DKA      -0.0530
      7 C6          1.1566   -1.7015   20.9876 C.3         1 DKA      -0.0531
      8 C7          2.4392   -1.5230   20.1205 C.3         1 DKA      -0.0531
      9 C8          2.2635   -2.0640   18.6733 C.3         1 DKA      -0.0533
     10 C9          3.5669   -2.6366   18.0437 C.3         1 DKA      -0.0559
     11 C10         4.8117   -1.7220   18.1722 C.3         1 DKA      -0.0653
     12 O2          4.8269    2.2928   23.0922 O.co2       1 DKA      -0.5690
     13 H1          1.9006    3.2232   22.2934 H           1 DKA       0.0430
     14 H2          2.3870    2.4635   23.8091 H           1 DKA       0.0430
     15 H3          1.5992    0.9825   21.2291 H           1 DKA       0.0283
     16 H4          0.5523    1.2182   22.6635 H           1 DKA       0.0283
     17 H5          2.0703   -0.1539   24.0455 H           1 DKA       0.0266
     18 H6          3.1955   -0.3530   22.7143 H           1 DKA       0.0266
     19 H7          0.3975   -1.5073   23.0104 H           1 DKA       0.0265
     20 H8          1.9289   -2.3730   22.8863 H           1 DKA       0.0265
     21 H9          0.3723   -1.0165   20.6440 H           1 DKA       0.0265
     22 H10         0.7789   -2.7239   20.8425 H           1 DKA       0.0265
     23 H11         3.2808   -2.0436   20.6008 H           1 DKA       0.0265
     24 H12         2.6760   -0.4553   20.0571 H           1 DKA       0.0265
     25 H13         1.8941   -1.2583   18.0324 H           1 DKA       0.0265
     26 H14         1.5168   -2.8687   18.6662 H           1 DKA       0.0265
     27 H15         3.3844   -2.8225   16.9815 H           1 DKA       0.0263
     28 H16         3.8020   -3.6041   18.5060 H           1 DKA       0.0263
     29 H17         5.6327   -2.1289   17.5684 H           1 DKA       0.0230
     30 H18         5.1254   -1.6640   19.2239 H           1 DKA       0.0230
     31 H19         4.5819   -0.7148   17.8142 H           1 DKA       0.0230
@<TRIPOS>BOND
     1     1     2  ar
     2     1     3   1
     3     1    12  ar
     4     3     4   1
     5     4     5   1
     6     5     6   1
     7     6     7   1
     8     7     8   1
     9     8     9   1
    10     9    10   1
    11    10    11   1
    12     3    13   1
    13     3    14   1
    14     4    15   1
    15     4    16   1
    16     5    17   1
    17     5    18   1
    18     6    19   1
    19     6    20   1
    20     7    21   1
    21     7    22   1
    22     8    23   1
    23     8    24   1
    24     9    25   1
    25     9    26   1
    26    10    27   1
    27    10    28   1
    28    11    29   1
    29    11    30   1
    30    11    31   1
@<TRIPOS>SUBSTRUCTURE
     1  DKA      1

