@<TRIPOS>MOLECULE
3u9q_ligand_001
    31    30
SMALL
GAST_HUCK
****
This file was generated by PARSER (from files_GN.cpp)

@<TRIPOS>ATOM
      1 C1          1.2898   -1.8202   19.8820 C.2         1 DKA       0.0348
      2 O1          1.7320   -1.5361   21.1304 O.co2       1 DKA      -0.5690
      3 C2          2.1566   -1.7445   18.6853 C.3         1 DKA       0.0002
      4 C3          3.6395   -1.3374   18.9255 C.3         1 DKA      -0.0414
      5 C4          3.8794    0.0996   19.4747 C.3         1 DKA      -0.0516
      6 C5          3.5095    1.2390   18.4834 C.3         1 DKA      -0.0530
      7 C6          3.4385    2.6748   19.0876 C.3         1 DKA      -0.0531
      8 C7          2.6813    2.8178   20.4445 C.3         1 DKA      -0.0531
      9 C8          3.6137    2.9746   21.6799 C.3         1 DKA      -0.0533
     10 C9          2.8705    3.3653   22.9988 C.3         1 DKA      -0.0559
     11 C10         3.0279    2.3237   24.1335 C.3         1 DKA      -0.0653
     12 O2          0.0388   -2.3192   19.7573 O.co2       1 DKA      -0.5690
     13 H1          1.7043   -1.0432   17.9788 H           1 DKA       0.0430
     14 H2          2.1478   -2.7358   18.2180 H           1 DKA       0.0430
     15 H3          4.1837   -1.4409   17.9801 H           1 DKA       0.0283
     16 H4          4.0864   -2.0504   19.6282 H           1 DKA       0.0283
     17 H5          4.9435    0.1968   19.7177 H           1 DKA       0.0266
     18 H6          3.3134    0.2212   20.3998 H           1 DKA       0.0266
     19 H7          2.5432    1.0206   18.0236 H           1 DKA       0.0265
     20 H8          4.2523    1.2549   17.6796 H           1 DKA       0.0265
     21 H9          2.9280    3.2940   18.3440 H           1 DKA       0.0265
     22 H10         4.4537    3.0737   19.1732 H           1 DKA       0.0265
     23 H11         2.0242    1.9566   20.5955 H           1 DKA       0.0265
     24 H12         2.0448    3.7079   20.3949 H           1 DKA       0.0265
     25 H13         4.3490    3.7540   21.4518 H           1 DKA       0.0265
     26 H14         4.1789    2.0506   21.8272 H           1 DKA       0.0265
     27 H15         1.8023    3.5098   22.8177 H           1 DKA       0.0263
     28 H16         3.2635    4.3193   23.3627 H           1 DKA       0.0263
     29 H17         2.5230    2.6770   25.0386 H           1 DKA       0.0230
     30 H18         4.0854    2.1666   24.3654 H           1 DKA       0.0230
     31 H19         2.5831    1.3688   23.8337 H           1 DKA       0.0230
@<TRIPOS>BOND
     1     1     2  ar
     2     1     3   1
     3     1    12  ar
     4     3     4   1
     5     4     5   1
     6     5     6   1
     7     6     7   1
     8     7     8   1
     9     8     9   1
    10     9    10   1
    11    10    11   1
    12     3    13   1
    13     3    14   1
    14     4    15   1
    15     4    16   1
    16     5    17   1
    17     5    18   1
    18     6    19   1
    19     6    20   1
    20     7    21   1
    21     7    22   1
    22     8    23   1
    23     8    24   1
    24     9    25   1
    25     9    26   1
    26    10    27   1
    27    10    28   1
    28    11    29   1
    29    11    30   1
    30    11    31   1
@<TRIPOS>SUBSTRUCTURE
     1  DKA      1

