@<TRIPOS>MOLECULE
3u9q_ligand_004
    31    30
SMALL
GAST_HUCK
****
This file was generated by PARSER (from files_GN.cpp)

@<TRIPOS>ATOM
      1 C1         -1.4470   -6.4627   24.0663 C.2         1 DKA       0.0348
      2 O1         -1.9448   -5.4685   23.3116 O.co2       1 DKA      -0.5690
      3 C2         -0.8399   -6.1409   25.3665 C.3         1 DKA       0.0002
      4 C3          0.2338   -5.0251   25.2646 C.3         1 DKA      -0.0414
      5 C4          0.8326   -4.5664   26.6223 C.3         1 DKA      -0.0516
      6 C5         -0.1158   -3.7350   27.5372 C.3         1 DKA      -0.0530
      7 C6         -0.1639   -2.1945   27.3292 C.3         1 DKA      -0.0531
      8 C7         -0.4842   -1.6493   25.9050 C.3         1 DKA      -0.0531
      9 C8          0.7739   -1.3717   25.0311 C.3         1 DKA      -0.0533
     10 C9          0.4633   -0.6581   23.6846 C.3         1 DKA      -0.0559
     11 C10         1.6170    0.2383   23.1852 C.3         1 DKA      -0.0653
     12 O2         -2.0353   -7.6763   23.9100 O.co2       1 DKA      -0.5690
     13 H1         -0.3739   -7.0350   25.7738 H           1 DKA       0.0430
     14 H2         -1.6376   -5.8466   26.0445 H           1 DKA       0.0430
     15 H3         -0.1945   -4.1710   24.7527 H           1 DKA       0.0283
     16 H4          1.0461   -5.3744   24.6320 H           1 DKA       0.0283
     17 H5          1.7421   -3.9907   26.4462 H           1 DKA       0.0266
     18 H6          1.1433   -5.4650   27.1631 H           1 DKA       0.0266
     19 H7          0.2076   -3.8925   28.5719 H           1 DKA       0.0265
     20 H8         -1.1333   -4.1160   27.4735 H           1 DKA       0.0265
     21 H9          0.7730   -1.7663   27.6838 H           1 DKA       0.0265
     22 H10        -0.9391   -1.8207   28.0064 H           1 DKA       0.0265
     23 H11        -1.0192   -0.7065   26.0227 H           1 DKA       0.0265
     24 H12        -1.1778   -2.3161   25.3945 H           1 DKA       0.0265
     25 H13         1.2910   -2.3053   24.8137 H           1 DKA       0.0265
     26 H14         1.4604   -0.7610   25.6206 H           1 DKA       0.0265
     27 H15        -0.4265   -0.0302   23.7864 H           1 DKA       0.0263
     28 H16         0.2500   -1.4146   22.9253 H           1 DKA       0.0263
     29 H17         1.3445    0.6915   22.2301 H           1 DKA       0.0230
     30 H18         2.5295   -0.3467   23.0497 H           1 DKA       0.0230
     31 H19         1.8137    1.0384   23.9023 H           1 DKA       0.0230
@<TRIPOS>BOND
     1     1     2  ar
     2     1     3   1
     3     1    12  ar
     4     3     4   1
     5     4     5   1
     6     5     6   1
     7     6     7   1
     8     7     8   1
     9     8     9   1
    10     9    10   1
    11    10    11   1
    12     3    13   1
    13     3    14   1
    14     4    15   1
    15     4    16   1
    16     5    17   1
    17     5    18   1
    18     6    19   1
    19     6    20   1
    20     7    21   1
    21     7    22   1
    22     8    23   1
    23     8    24   1
    24     9    25   1
    25     9    26   1
    26    10    27   1
    27    10    28   1
    28    11    29   1
    29    11    30   1
    30    11    31   1
@<TRIPOS>SUBSTRUCTURE
     1  DKA      1

