@<TRIPOS>MOLECULE
3u9q_ligand_022
    31    30
SMALL
GAST_HUCK
****
This file was generated by PARSER (from files_GN.cpp)

@<TRIPOS>ATOM
      1 C1          7.7651   -2.5377   23.0987 C.2         1 DKA       0.0348
      2 O1          8.7160   -2.2490   24.0161 O.co2       1 DKA      -0.5690
      3 C2          7.2552   -1.4799   22.1958 C.3         1 DKA       0.0002
      4 C3          7.1035   -1.9453   20.7163 C.3         1 DKA      -0.0414
      5 C4          8.3572   -1.7764   19.7979 C.3         1 DKA      -0.0516
      6 C5          8.7063   -0.3063   19.4501 C.3         1 DKA      -0.0530
      7 C6          9.9844   -0.0300   18.5796 C.3         1 DKA      -0.0531
      8 C7         10.8352   -1.2176   18.0258 C.3         1 DKA      -0.0531
      9 C8         10.8175   -1.4415   16.4684 C.3         1 DKA      -0.0533
     10 C9         10.5895   -2.9112   16.0078 C.3         1 DKA      -0.0559
     11 C10        11.5576   -3.9742   16.6014 C.3         1 DKA      -0.0653
     12 O2          7.2002   -3.7682   23.1005 O.co2       1 DKA      -0.5690
     13 H1          7.8868   -0.5980   22.2536 H           1 DKA       0.0430
     14 H2          6.2578   -1.1854   22.5670 H           1 DKA       0.0430
     15 H3          6.2595   -1.3954   20.2697 H           1 DKA       0.0283
     16 H4          6.8171   -3.0051   20.7137 H           1 DKA       0.0283
     17 H5          8.1553   -2.2933   18.8604 H           1 DKA       0.0266
     18 H6          9.1947   -2.2720   20.2723 H           1 DKA       0.0266
     19 H7          8.8241    0.2502   20.3847 H           1 DKA       0.0265
     20 H8          7.8409    0.1277   18.9412 H           1 DKA       0.0265
     21 H9         10.6670    0.5969   19.1906 H           1 DKA       0.0265
     22 H10         9.6780    0.6116   17.7313 H           1 DKA       0.0265
     23 H11        10.5286   -2.1320   18.5589 H           1 DKA       0.0265
     24 H12        11.8937   -1.0155   18.3170 H           1 DKA       0.0265
     25 H13        11.7816   -1.0915   16.0595 H           1 DKA       0.0265
     26 H14        10.0210   -0.8254   16.0235 H           1 DKA       0.0265
     27 H15        10.7049   -2.9351   14.9170 H           1 DKA       0.0263
     28 H16         9.5536   -3.2010   16.2505 H           1 DKA       0.0263
     29 H17        11.3569   -4.9488   16.1194 H           1 DKA       0.0230
     30 H18        11.3986   -4.0797   17.6864 H           1 DKA       0.0230
     31 H19        12.6122   -3.6941   16.4092 H           1 DKA       0.0230
@<TRIPOS>BOND
     1     1     2  ar
     2     1     3   1
     3     1    12  ar
     4     3     4   1
     5     4     5   1
     6     5     6   1
     7     6     7   1
     8     7     8   1
     9     8     9   1
    10     9    10   1
    11    10    11   1
    12     3    13   1
    13     3    14   1
    14     4    15   1
    15     4    16   1
    16     5    17   1
    17     5    18   1
    18     6    19   1
    19     6    20   1
    20     7    21   1
    21     7    22   1
    22     8    23   1
    23     8    24   1
    24     9    25   1
    25     9    26   1
    26    10    27   1
    27    10    28   1
    28    11    29   1
    29    11    30   1
    30    11    31   1
@<TRIPOS>SUBSTRUCTURE
     1  DKA      1

