@<TRIPOS>MOLECULE
3u9q_ligand_011
    31    30
SMALL
GAST_HUCK
****
This file was generated by PARSER (from files_GN.cpp)

@<TRIPOS>ATOM
      1 C1          3.4737    3.5744   19.9287 C.2         1 DKA       0.0348
      2 O1          2.5576    4.5717   19.9255 O.co2       1 DKA      -0.5690
      3 C2          3.6066    2.6761   18.7665 C.3         1 DKA       0.0002
      4 C3          3.3015    1.1787   19.0675 C.3         1 DKA      -0.0414
      5 C4          4.5749    0.3333   19.3885 C.3         1 DKA      -0.0516
      6 C5          4.4226   -1.1896   19.0529 C.3         1 DKA      -0.0530
      7 C6          5.4946   -1.7393   18.0631 C.3         1 DKA      -0.0531
      8 C7          6.9181   -1.9917   18.6467 C.3         1 DKA      -0.0531
      9 C8          7.5716   -0.7673   19.3543 C.3         1 DKA      -0.0533
     10 C9          9.0799   -0.9422   19.7004 C.3         1 DKA      -0.0559
     11 C10        10.0288   -0.6579   18.5084 C.3         1 DKA      -0.0653
     12 O2          4.3073    3.4641   20.9904 O.co2       1 DKA      -0.5690
     13 H1          4.6167    2.7788   18.3716 H           1 DKA       0.0430
     14 H2          2.9145    3.0169   17.9913 H           1 DKA       0.0430
     15 H3          2.8063    0.7584   18.1757 H           1 DKA       0.0283
     16 H4          2.6014    1.1114   19.9100 H           1 DKA       0.0283
     17 H5          4.7847    0.4269   20.4610 H           1 DKA       0.0266
     18 H6          5.4228    0.7494   18.8388 H           1 DKA       0.0266
     19 H7          3.4416   -1.3853   18.6150 H           1 DKA       0.0265
     20 H8          4.4739   -1.7828   19.9766 H           1 DKA       0.0265
     21 H9          5.5806   -1.0740   17.1985 H           1 DKA       0.0265
     22 H10         5.1432   -2.7014   17.6798 H           1 DKA       0.0265
     23 H11         7.5580   -2.3080   17.8092 H           1 DKA       0.0265
     24 H12         6.8674   -2.8317   19.3479 H           1 DKA       0.0265
     25 H13         7.0352   -0.5870   20.2912 H           1 DKA       0.0265
     26 H14         7.4421    0.1235   18.7322 H           1 DKA       0.0265
     27 H15         9.2639   -1.9593   20.0744 H           1 DKA       0.0263
     28 H16         9.3239   -0.2417   20.5097 H           1 DKA       0.0263
     29 H17        11.0691   -0.7677   18.8416 H           1 DKA       0.0230
     30 H18         9.8812    0.3710   18.1456 H           1 DKA       0.0230
     31 H19         9.8398   -1.3578   17.6904 H           1 DKA       0.0230
@<TRIPOS>BOND
     1     1     2  ar
     2     1     3   1
     3     1    12  ar
     4     3     4   1
     5     4     5   1
     6     5     6   1
     7     6     7   1
     8     7     8   1
     9     8     9   1
    10     9    10   1
    11    10    11   1
    12     3    13   1
    13     3    14   1
    14     4    15   1
    15     4    16   1
    16     5    17   1
    17     5    18   1
    18     6    19   1
    19     6    20   1
    20     7    21   1
    21     7    22   1
    22     8    23   1
    23     8    24   1
    24     9    25   1
    25     9    26   1
    26    10    27   1
    27    10    28   1
    28    11    29   1
    29    11    30   1
    30    11    31   1
@<TRIPOS>SUBSTRUCTURE
     1  DKA      1

