@<TRIPOS>MOLECULE
3udh_ligand_053
    27    29
SMALL
GAST_HUCK
****
This file was generated by PARSER (from files_GN.cpp)

@<TRIPOS>ATOM
      1 C1         18.8558   33.6711   44.5549 C.3         1 MOL       0.0781
      2 C2         17.5615   33.0080   44.2578 C.ar        1 MOL      -0.0219
      3 C3         18.5973   34.9512   43.8922 C.2         1 MOL       0.2144
      4 C4         19.1803   33.8044   46.0609 C.3         1 MOL      -0.0294
      5 C5         20.1042   32.9390   44.0043 C.3         1 MOL      -0.0531
      6 C6         16.7518   33.8711   43.5193 C.ar        1 MOL       0.0939
      7 C7         17.0925   31.7237   44.5955 C.ar        1 MOL      -0.0552
      8 N1         17.4124   35.0135   43.3311 N.am        1 MOL      -0.2200
      9 O1         19.3887   35.8808   43.8345 O.2         1 MOL      -0.3196
     10 C8         20.7162   33.9364   46.1026 C.3         1 MOL      -0.0449
     11 N2         21.2340   33.3715   44.8431 N.4         1 MOL       0.2177
     12 C9         15.4712   33.4897   43.0813 C.ar        1 MOL      -0.0098
     13 C10        15.8132   31.3163   44.1565 C.ar        1 MOL      -0.0486
     14 C11        15.0141   32.1927   43.3918 C.ar        1 MOL      -0.0475
     15 H1         18.8879   32.8945   46.5962 H           1 MOL       0.0183
     16 H2         18.6862   34.6592   46.5314 H           1 MOL       0.0183
     17 H3         20.3027   33.1659   42.9515 H           1 MOL       0.0667
     18 H4         19.9955   31.8562   44.1092 H           1 MOL       0.0667
     19 H5         17.6712   31.0858   45.1441 H           1 MOL       0.0771
     20 H6         17.0696   35.7781   42.8400 H           1 MOL       0.2404
     21 H7         21.1371   33.4002   46.9568 H           1 MOL       0.0802
     22 H8         21.0070   34.9873   46.1685 H           1 MOL       0.0802
     23 H9         21.7727   34.0891   44.3506 H           1 MOL       0.2001
     24 H10        21.8419   32.5738   45.0421 H           1 MOL       0.2001
     25 H11        14.8932   34.1305   42.5366 H           1 MOL       0.0591
     26 H12        15.4696   30.3814   44.3845 H           1 MOL       0.0588
     27 H13        14.0948   31.8862   43.0622 H           1 MOL       0.0799
@<TRIPOS>BOND
     1     1     2   1
     2     1     3   1
     3     1     4   1
     4     1     5   1
     5     2     6  ar
     6     2     7  ar
     7     3     8  am
     8     3     9   2
     9     4    10   1
    10     5    11   1
    11     6     8   1
    12     6    12  ar
    13     7    13  ar
    14    10    11   1
    15    12    14  ar
    16    13    14  ar
    17     4    15   1
    18     4    16   1
    19     5    17   1
    20     5    18   1
    21     7    19   1
    22     8    20   1
    23    10    21   1
    24    10    22   1
    25    11    23   1
    26    11    24   1
    27    12    25   1
    28    13    26   1
    29    14    27   1
@<TRIPOS>SUBSTRUCTURE
     1  MOL      1

