@<TRIPOS>MOLECULE
3udh_ligand_064
    27    29
SMALL
GAST_HUCK
****
This file was generated by PARSER (from files_GN.cpp)

@<TRIPOS>ATOM
      1 C1         21.5478   36.6397   41.0901 C.3         1 MOL       0.0781
      2 C2         20.2686   36.9366   41.7713 C.ar        1 MOL      -0.0219
      3 C3         21.6641   37.8623   40.2965 C.2         1 MOL       0.2144
      4 C4         22.7437   36.4116   42.0433 C.3         1 MOL      -0.0294
      5 C5         21.5346   35.3477   40.2385 C.3         1 MOL      -0.0531
      6 C6         19.7965   38.1808   41.3567 C.ar        1 MOL       0.0939
      7 C7         19.5333   36.1782   42.7040 C.ar        1 MOL      -0.0552
      8 N1         20.6619   38.6926   40.4828 N.am        1 MOL      -0.2200
      9 O1         22.5860   38.1234   39.5374 O.2         1 MOL      -0.3196
     10 C8         23.7208   35.5609   41.2070 C.3         1 MOL      -0.0449
     11 N2         22.9338   34.9056   40.1457 N.4         1 MOL       0.2177
     12 C9         18.5938   38.7156   41.8532 C.ar        1 MOL      -0.0098
     13 C10        18.3231   36.6954   43.2105 C.ar        1 MOL      -0.0486
     14 C11        17.8559   37.9593   42.7873 C.ar        1 MOL      -0.0475
     15 H1         22.4324   35.8377   42.9219 H           1 MOL       0.0183
     16 H2         23.2025   37.3458   42.3830 H           1 MOL       0.0183
     17 H3         21.1123   35.5014   39.2412 H           1 MOL       0.0667
     18 H4         20.9643   34.5623   40.7421 H           1 MOL       0.0667
     19 H5         19.8691   35.2622   43.0098 H           1 MOL       0.0771
     20 H6         20.5797   39.5604   40.0611 H           1 MOL       0.2404
     21 H7         24.2202   34.8108   41.8262 H           1 MOL       0.0802
     22 H8         24.4764   36.1976   40.7410 H           1 MOL       0.0802
     23 H9         23.2847   35.1938   39.2237 H           1 MOL       0.2001
     24 H10        22.9899   33.8881   40.2508 H           1 MOL       0.2001
     25 H11        18.2632   39.6309   41.5422 H           1 MOL       0.0591
     26 H12        17.7829   36.1534   43.8879 H           1 MOL       0.0588
     27 H13        16.9775   38.3269   43.1593 H           1 MOL       0.0799
@<TRIPOS>BOND
     1     1     2   1
     2     1     3   1
     3     1     4   1
     4     1     5   1
     5     2     6  ar
     6     2     7  ar
     7     3     8  am
     8     3     9   2
     9     4    10   1
    10     5    11   1
    11     6     8   1
    12     6    12  ar
    13     7    13  ar
    14    10    11   1
    15    12    14  ar
    16    13    14  ar
    17     4    15   1
    18     4    16   1
    19     5    17   1
    20     5    18   1
    21     7    19   1
    22     8    20   1
    23    10    21   1
    24    10    22   1
    25    11    23   1
    26    11    24   1
    27    12    25   1
    28    13    26   1
    29    14    27   1
@<TRIPOS>SUBSTRUCTURE
     1  MOL      1

