@<TRIPOS>MOLECULE
3udh_ligand_014
    27    29
SMALL
GAST_HUCK
****
This file was generated by PARSER (from files_GN.cpp)

@<TRIPOS>ATOM
      1 C1         21.2620   34.8925   42.3329 C.3         1 MOL       0.0781
      2 C2         20.4854   36.1362   42.1276 C.ar        1 MOL      -0.0219
      3 C3         21.8623   34.7859   41.0040 C.2         1 MOL       0.2144
      4 C4         22.3024   34.9602   43.4768 C.3         1 MOL      -0.0294
      5 C5         20.4140   33.6593   42.7292 C.3         1 MOL      -0.0531
      6 C6         20.6883   36.6001   40.8269 C.ar        1 MOL       0.0939
      7 C7         19.6282   36.8416   42.9989 C.ar        1 MOL      -0.0552
      8 N1         21.5123   35.7628   40.1974 N.am        1 MOL      -0.2200
      9 O1         22.6094   33.8890   40.6384 O.2         1 MOL      -0.3196
     10 C8         22.5222   33.4809   43.8611 C.3         1 MOL      -0.0449
     11 N2         21.3536   32.7261   43.3688 N.4         1 MOL       0.2177
     12 C9         20.0702   37.7671   40.3532 C.ar        1 MOL      -0.0098
     13 C10        18.9854   38.0084   42.5329 C.ar        1 MOL      -0.0486
     14 C11        19.2135   38.4747   41.2208 C.ar        1 MOL      -0.0475
     15 H1         21.8947   35.4942   44.3407 H           1 MOL       0.0183
     16 H2         23.2365   35.4430   43.1785 H           1 MOL       0.0183
     17 H3         19.9212   33.1915   41.8736 H           1 MOL       0.0667
     18 H4         19.6488   33.9330   43.4612 H           1 MOL       0.0667
     19 H5         19.4664   36.5094   43.9491 H           1 MOL       0.0771
     20 H6         21.8038   35.8608   39.2743 H           1 MOL       0.2404
     21 H7         22.6225   33.3604   44.9417 H           1 MOL       0.0802
     22 H8         23.4202   33.0901   43.3737 H           1 MOL       0.0802
     23 H9         21.6657   32.0469   42.6728 H           1 MOL       0.2001
     24 H10        20.8923   32.2359   44.1418 H           1 MOL       0.2001
     25 H11        20.2351   38.0877   39.3986 H           1 MOL       0.0591
     26 H12        18.3558   38.5230   43.1532 H           1 MOL       0.0588
     27 H13        18.7479   39.3252   40.8943 H           1 MOL       0.0799
@<TRIPOS>BOND
     1     1     2   1
     2     1     3   1
     3     1     4   1
     4     1     5   1
     5     2     6  ar
     6     2     7  ar
     7     3     8  am
     8     3     9   2
     9     4    10   1
    10     5    11   1
    11     6     8   1
    12     6    12  ar
    13     7    13  ar
    14    10    11   1
    15    12    14  ar
    16    13    14  ar
    17     4    15   1
    18     4    16   1
    19     5    17   1
    20     5    18   1
    21     7    19   1
    22     8    20   1
    23    10    21   1
    24    10    22   1
    25    11    23   1
    26    11    24   1
    27    12    25   1
    28    13    26   1
    29    14    27   1
@<TRIPOS>SUBSTRUCTURE
     1  MOL      1

