@<TRIPOS>MOLECULE
3udh_ligand_076
    27    29
SMALL
GAST_HUCK
****
This file was generated by PARSER (from files_GN.cpp)

@<TRIPOS>ATOM
      1 C1         28.6939   32.7497   41.8064 C.3         1 MOL       0.0781
      2 C2         28.2631   34.0241   41.1923 C.ar        1 MOL      -0.0219
      3 C3         29.4605   33.2948   42.9274 C.2         1 MOL       0.2144
      4 C4         27.5354   31.8235   42.2461 C.3         1 MOL      -0.0294
      5 C5         29.5269   31.8316   40.8788 C.3         1 MOL      -0.0531
      6 C6         28.7574   35.0935   41.9391 C.ar        1 MOL       0.0939
      7 C7         27.4804   34.2683   40.0451 C.ar        1 MOL      -0.0552
      8 N1         29.4615   34.6089   42.9611 N.am        1 MOL      -0.2200
      9 O1         30.0503   32.6282   43.7655 O.2         1 MOL      -0.3196
     10 C8         28.1768   30.4222   42.2802 C.3         1 MOL      -0.0449
     11 N2         29.3775   30.4734   41.4264 N.4         1 MOL       0.2177
     12 C9         28.5016   36.4266   41.5754 C.ar        1 MOL      -0.0098
     13 C10        27.2103   35.6003   39.6680 C.ar        1 MOL      -0.0486
     14 C11        27.7214   36.6752   40.4280 C.ar        1 MOL      -0.0475
     15 H1         26.7327   31.8296   41.5019 H           1 MOL       0.0183
     16 H2         27.1121   32.1005   43.2163 H           1 MOL       0.0183
     17 H3         30.5817   32.1154   40.8348 H           1 MOL       0.0667
     18 H4         29.1243   31.8322   39.8621 H           1 MOL       0.0667
     19 H5         27.1128   33.4920   39.4920 H           1 MOL       0.0771
     20 H6         29.9140   35.1486   43.6289 H           1 MOL       0.2404
     21 H7         27.4842   29.6611   41.9133 H           1 MOL       0.0802
     22 H8         28.4780   30.1666   43.2994 H           1 MOL       0.0802
     23 H9         30.2001   30.2414   41.9881 H           1 MOL       0.2001
     24 H10        29.2885   29.8015   40.6607 H           1 MOL       0.2001
     25 H11        28.8720   37.1975   42.1331 H           1 MOL       0.0591
     26 H12        26.6405   35.7863   38.8408 H           1 MOL       0.0588
     27 H13        27.5234   37.6378   40.1462 H           1 MOL       0.0799
@<TRIPOS>BOND
     1     1     2   1
     2     1     3   1
     3     1     4   1
     4     1     5   1
     5     2     6  ar
     6     2     7  ar
     7     3     8  am
     8     3     9   2
     9     4    10   1
    10     5    11   1
    11     6     8   1
    12     6    12  ar
    13     7    13  ar
    14    10    11   1
    15    12    14  ar
    16    13    14  ar
    17     4    15   1
    18     4    16   1
    19     5    17   1
    20     5    18   1
    21     7    19   1
    22     8    20   1
    23    10    21   1
    24    10    22   1
    25    11    23   1
    26    11    24   1
    27    12    25   1
    28    13    26   1
    29    14    27   1
@<TRIPOS>SUBSTRUCTURE
     1  MOL      1

