@<TRIPOS>MOLECULE
3udh_ligand_032
    27    29
SMALL
GAST_HUCK
****
This file was generated by PARSER (from files_GN.cpp)

@<TRIPOS>ATOM
      1 C1         21.5174   36.1574   41.9977 C.3         1 MOL       0.0781
      2 C2         22.3057   34.9187   42.2030 C.ar        1 MOL      -0.0219
      3 C3         20.9049   36.2412   43.3212 C.2         1 MOL       0.2144
      4 C4         22.3837   37.3945   41.6171 C.3         1 MOL      -0.0294
      5 C5         20.4749   36.0279   40.8521 C.3         1 MOL      -0.0531
      6 C6         22.0883   34.4327   43.4925 C.ar        1 MOL       0.0939
      7 C7         23.1580   34.2230   41.3211 C.ar        1 MOL      -0.0552
      8 N1         21.2474   35.2545   44.1180 N.am        1 MOL      -0.2200
      9 O1         20.1424   37.1270   43.6799 O.2         1 MOL      -0.3196
     10 C8         21.7180   37.9617   40.3505 C.3         1 MOL      -0.0449
     11 N2         21.0354   36.8117   39.7474 N.4         1 MOL       0.2177
     12 C9         22.7043   33.2549   43.9491 C.ar        1 MOL      -0.0098
     13 C10        23.7818   33.0363   41.7620 C.ar        1 MOL      -0.0486
     14 C11        23.5544   32.5544   43.0694 C.ar        1 MOL      -0.0475
     15 H1         23.4150   37.1122   41.3858 H           1 MOL       0.0183
     16 H2         22.4113   38.1533   42.4012 H           1 MOL       0.0183
     17 H3         19.5096   36.4639   41.1260 H           1 MOL       0.0667
     18 H4         20.3078   34.9980   40.5341 H           1 MOL       0.0667
     19 H5         23.3229   34.5725   40.3748 H           1 MOL       0.0771
     20 H6         20.9281   35.1361   45.0264 H           1 MOL       0.2404
     21 H7         22.4505   38.3808   39.6567 H           1 MOL       0.0802
     22 H8         20.9855   38.7326   40.6077 H           1 MOL       0.0802
     23 H9         20.3082   37.1141   39.0966 H           1 MOL       0.2001
     24 H10        21.7222   36.2562   39.2333 H           1 MOL       0.2001
     25 H11        22.5366   32.9142   44.8980 H           1 MOL       0.0591
     26 H12        24.3993   32.5210   41.1325 H           1 MOL       0.0588
     27 H13        24.0086   31.6930   43.3804 H           1 MOL       0.0799
@<TRIPOS>BOND
     1     1     2   1
     2     1     3   1
     3     1     4   1
     4     1     5   1
     5     2     6  ar
     6     2     7  ar
     7     3     8  am
     8     3     9   2
     9     4    10   1
    10     5    11   1
    11     6     8   1
    12     6    12  ar
    13     7    13  ar
    14    10    11   1
    15    12    14  ar
    16    13    14  ar
    17     4    15   1
    18     4    16   1
    19     5    17   1
    20     5    18   1
    21     7    19   1
    22     8    20   1
    23    10    21   1
    24    10    22   1
    25    11    23   1
    26    11    24   1
    27    12    25   1
    28    13    26   1
    29    14    27   1
@<TRIPOS>SUBSTRUCTURE
     1  MOL      1

