@<TRIPOS>MOLECULE
3udh_ligand_033
    27    29
SMALL
GAST_HUCK
****
This file was generated by PARSER (from files_GN.cpp)

@<TRIPOS>ATOM
      1 C1         24.1181   34.8865   42.3240 C.3         1 MOL       0.0781
      2 C2         24.4213   36.2824   41.9345 C.ar        1 MOL      -0.0219
      3 C3         23.4438   34.4712   41.0980 C.2         1 MOL       0.2144
      4 C4         25.3755   34.0469   42.6896 C.3         1 MOL      -0.0294
      5 C5         23.2214   34.8125   43.5920 C.3         1 MOL      -0.0531
      6 C6         23.9132   36.5364   40.6624 C.ar        1 MOL       0.0939
      7 C7         25.0759   37.3041   42.6483 C.ar        1 MOL      -0.0552
      8 N1         23.3466   35.4262   40.2010 N.am        1 MOL      -0.2200
      9 O1         23.0117   33.3488   40.8918 O.2         1 MOL      -0.3196
     10 C8         25.1561   33.6155   44.1550 C.3         1 MOL      -0.0449
     11 N2         24.1585   34.5456   44.6921 N.4         1 MOL       0.2177
     12 C9         24.0193   37.8027   40.0637 C.ar        1 MOL      -0.0098
     13 C10        25.1984   38.5797   42.0612 C.ar        1 MOL      -0.0486
     14 C11        24.6582   38.8341   40.7804 C.ar        1 MOL      -0.0475
     15 H1         26.2964   34.6316   42.6138 H           1 MOL       0.0183
     16 H2         25.4926   33.1596   42.0581 H           1 MOL       0.0183
     17 H3         22.5046   33.9845   43.5314 H           1 MOL       0.0667
     18 H4         22.6667   35.7334   43.7844 H           1 MOL       0.0667
     19 H5         25.4507   37.1282   43.5808 H           1 MOL       0.0771
     20 H6         22.9364   35.3551   39.3217 H           1 MOL       0.2404
     21 H7         26.0816   33.6681   44.7353 H           1 MOL       0.0802
     22 H8         24.7675   32.5909   44.2034 H           1 MOL       0.0802
     23 H9         23.6742   34.1355   45.4917 H           1 MOL       0.2001
     24 H10        24.6178   35.4191   44.9740 H           1 MOL       0.2001
     25 H11        23.6304   37.9742   39.1358 H           1 MOL       0.0591
     26 H12        25.6615   39.3292   42.5774 H           1 MOL       0.0588
     27 H13        24.7262   39.7685   40.3708 H           1 MOL       0.0799
@<TRIPOS>BOND
     1     1     2   1
     2     1     3   1
     3     1     4   1
     4     1     5   1
     5     2     6  ar
     6     2     7  ar
     7     3     8  am
     8     3     9   2
     9     4    10   1
    10     5    11   1
    11     6     8   1
    12     6    12  ar
    13     7    13  ar
    14    10    11   1
    15    12    14  ar
    16    13    14  ar
    17     4    15   1
    18     4    16   1
    19     5    17   1
    20     5    18   1
    21     7    19   1
    22     8    20   1
    23    10    21   1
    24    10    22   1
    25    11    23   1
    26    11    24   1
    27    12    25   1
    28    13    26   1
    29    14    27   1
@<TRIPOS>SUBSTRUCTURE
     1  MOL      1

