@<TRIPOS>MOLECULE
3udh_ligand_086
    27    29
SMALL
GAST_HUCK
****
This file was generated by PARSER (from files_GN.cpp)

@<TRIPOS>ATOM
      1 C1         31.7815   30.4313   42.5061 C.3         1 MOL       0.0781
      2 C2         30.5383   30.8763   41.8327 C.ar        1 MOL      -0.0219
      3 C3         32.7398   31.1918   41.7097 C.2         1 MOL       0.2144
      4 C4         31.8102   30.7587   44.0285 C.3         1 MOL      -0.0294
      5 C5         31.9932   28.8945   42.4280 C.3         1 MOL      -0.0531
      6 C6         30.8515   31.7715   40.8103 C.ar        1 MOL       0.0939
      7 C7         29.1953   30.5129   42.0643 C.ar        1 MOL      -0.0552
      8 N1         32.1745   31.9262   40.7782 N.am        1 MOL      -0.2200
      9 O1         33.9508   31.1744   41.8749 O.2         1 MOL      -0.3196
     10 C8         32.0065   29.3958   44.7260 C.3         1 MOL      -0.0449
     11 N2         31.5769   28.3938   43.7444 N.4         1 MOL       0.2177
     12 C9         29.8571   32.3307   39.9897 C.ar        1 MOL      -0.0098
     13 C10        28.1832   31.0693   41.2552 C.ar        1 MOL      -0.0486
     14 C11        28.5125   31.9733   40.2217 C.ar        1 MOL      -0.0475
     15 H1         30.8690   31.2067   44.3677 H           1 MOL       0.0183
     16 H2         32.6232   31.4409   44.3013 H           1 MOL       0.0183
     17 H3         33.0483   28.6365   42.2797 H           1 MOL       0.0667
     18 H4         31.4057   28.4167   41.6380 H           1 MOL       0.0667
     19 H5         28.9576   29.8567   42.8108 H           1 MOL       0.0771
     20 H6         32.6531   32.4978   40.1593 H           1 MOL       0.2404
     21 H7         31.4130   29.3149   45.6410 H           1 MOL       0.0802
     22 H8         33.0623   29.2361   44.9730 H           1 MOL       0.0802
     23 H9         31.9985   27.4829   43.9423 H           1 MOL       0.2001
     24 H10        30.5570   28.3159   43.7682 H           1 MOL       0.2001
     25 H11        30.1030   32.9806   39.2409 H           1 MOL       0.0591
     26 H12        27.2067   30.8102   41.4132 H           1 MOL       0.0588
     27 H13        27.7734   32.3654   39.6343 H           1 MOL       0.0799
@<TRIPOS>BOND
     1     1     2   1
     2     1     3   1
     3     1     4   1
     4     1     5   1
     5     2     6  ar
     6     2     7  ar
     7     3     8  am
     8     3     9   2
     9     4    10   1
    10     5    11   1
    11     6     8   1
    12     6    12  ar
    13     7    13  ar
    14    10    11   1
    15    12    14  ar
    16    13    14  ar
    17     4    15   1
    18     4    16   1
    19     5    17   1
    20     5    18   1
    21     7    19   1
    22     8    20   1
    23    10    21   1
    24    10    22   1
    25    11    23   1
    26    11    24   1
    27    12    25   1
    28    13    26   1
    29    14    27   1
@<TRIPOS>SUBSTRUCTURE
     1  MOL      1

