@<TRIPOS>MOLECULE
3udh_ligand_082
    27    29
SMALL
GAST_HUCK
****
This file was generated by PARSER (from files_GN.cpp)

@<TRIPOS>ATOM
      1 C1         27.6988   32.9667   39.1468 C.3         1 MOL       0.0781
      2 C2         27.5780   32.2395   37.8647 C.ar        1 MOL      -0.0219
      3 C3         26.9259   34.1585   38.7994 C.2         1 MOL       0.2144
      4 C4         27.1376   32.1931   40.3641 C.3         1 MOL      -0.0294
      5 C5         29.1460   33.2817   39.5889 C.3         1 MOL      -0.0531
      6 C6         26.7819   32.9732   36.9851 C.ar        1 MOL       0.0939
      7 C7         28.0950   30.9897   37.4663 C.ar        1 MOL      -0.0552
      8 N1         26.4313   34.1106   37.5817 N.am        1 MOL      -0.2200
      9 O1         26.7126   35.1036   39.5438 O.2         1 MOL      -0.3196
     10 C8         27.8522   32.8304   41.5693 C.3         1 MOL      -0.0449
     11 N2         29.0771   33.4642   41.0497 N.4         1 MOL       0.2177
     12 C9         26.4590   32.4922   35.7051 C.ar        1 MOL      -0.0098
     13 C10        27.7725   30.4808   36.1915 C.ar        1 MOL      -0.0486
     14 C11        26.9573   31.2312   35.3164 C.ar        1 MOL      -0.0475
     15 H1         27.4048   31.1334   40.3098 H           1 MOL       0.0183
     16 H2         26.0532   32.2628   40.4562 H           1 MOL       0.0183
     17 H3         29.5481   34.1760   39.1062 H           1 MOL       0.0667
     18 H4         29.8131   32.4424   39.3764 H           1 MOL       0.0667
     19 H5         28.6921   30.4612   38.0980 H           1 MOL       0.0771
     20 H6         25.8678   34.7911   37.1805 H           1 MOL       0.2404
     21 H7         28.1020   32.0808   42.3238 H           1 MOL       0.0802
     22 H8         27.2209   33.5988   42.0249 H           1 MOL       0.0802
     23 H9         29.0465   34.4642   41.2664 H           1 MOL       0.2001
     24 H10        29.8984   33.0442   41.4901 H           1 MOL       0.2001
     25 H11        25.8709   33.0409   35.0729 H           1 MOL       0.0591
     26 H12        28.1423   29.5731   35.8983 H           1 MOL       0.0588
     27 H13        26.7276   30.8567   34.3919 H           1 MOL       0.0799
@<TRIPOS>BOND
     1     1     2   1
     2     1     3   1
     3     1     4   1
     4     1     5   1
     5     2     6  ar
     6     2     7  ar
     7     3     8  am
     8     3     9   2
     9     4    10   1
    10     5    11   1
    11     6     8   1
    12     6    12  ar
    13     7    13  ar
    14    10    11   1
    15    12    14  ar
    16    13    14  ar
    17     4    15   1
    18     4    16   1
    19     5    17   1
    20     5    18   1
    21     7    19   1
    22     8    20   1
    23    10    21   1
    24    10    22   1
    25    11    23   1
    26    11    24   1
    27    12    25   1
    28    13    26   1
    29    14    27   1
@<TRIPOS>SUBSTRUCTURE
     1  MOL      1

