@<TRIPOS>MOLECULE
3udh_ligand_074
    27    29
SMALL
GAST_HUCK
****
This file was generated by PARSER (from files_GN.cpp)

@<TRIPOS>ATOM
      1 C1         30.5387   30.2447   43.3774 C.3         1 MOL       0.0781
      2 C2         30.0818   28.8400   43.2661 C.ar        1 MOL      -0.0219
      3 C3         30.4216   30.3927   44.8258 C.2         1 MOL       0.2144
      4 C4         31.9816   30.4776   42.8355 C.3         1 MOL      -0.0294
      5 C5         29.6452   31.2359   42.5785 C.3         1 MOL      -0.0531
      6 C6         29.7762   28.3424   44.5326 C.ar        1 MOL       0.0939
      7 C7         29.9213   28.0219   42.1286 C.ar        1 MOL      -0.0552
      8 N1         29.9999   29.3031   45.4277 N.am        1 MOL      -0.2200
      9 O1         30.6964   31.4095   45.4456 O.2         1 MOL      -0.3196
     10 C8         31.8452   31.6563   41.8536 C.3         1 MOL      -0.0449
     11 N2         30.4490   31.6054   41.4075 N.4         1 MOL       0.2177
     12 C9         29.3055   27.0300   44.7151 C.ar        1 MOL      -0.0098
     13 C10        29.4567   26.6996   42.2942 C.ar        1 MOL      -0.0486
     14 C11        29.1500   26.2069   43.5807 C.ar        1 MOL      -0.0475
     15 H1         32.3547   29.6028   42.2942 H           1 MOL       0.0183
     16 H2         32.7021   30.7217   43.6196 H           1 MOL       0.0183
     17 H3         29.4330   32.1453   43.1489 H           1 MOL       0.0667
     18 H4         28.6934   30.8016   42.2586 H           1 MOL       0.0667
     19 H5         30.1349   28.3795   41.1947 H           1 MOL       0.0771
     20 H6         29.8719   29.2122   46.3850 H           1 MOL       0.2404
     21 H7         32.5233   31.5581   41.0021 H           1 MOL       0.0802
     22 H8         32.0420   32.6057   42.3615 H           1 MOL       0.0802
     23 H9         30.1493   32.5009   41.0206 H           1 MOL       0.2001
     24 H10        30.3650   30.8767   40.6958 H           1 MOL       0.2001
     25 H11        29.0789   26.6846   45.6478 H           1 MOL       0.0591
     26 H12        29.3415   26.0947   41.4776 H           1 MOL       0.0588
     27 H13        28.8104   25.2510   43.6906 H           1 MOL       0.0799
@<TRIPOS>BOND
     1     1     2   1
     2     1     3   1
     3     1     4   1
     4     1     5   1
     5     2     6  ar
     6     2     7  ar
     7     3     8  am
     8     3     9   2
     9     4    10   1
    10     5    11   1
    11     6     8   1
    12     6    12  ar
    13     7    13  ar
    14    10    11   1
    15    12    14  ar
    16    13    14  ar
    17     4    15   1
    18     4    16   1
    19     5    17   1
    20     5    18   1
    21     7    19   1
    22     8    20   1
    23    10    21   1
    24    10    22   1
    25    11    23   1
    26    11    24   1
    27    12    25   1
    28    13    26   1
    29    14    27   1
@<TRIPOS>SUBSTRUCTURE
     1  MOL      1

