@<TRIPOS>MOLECULE
3udh_ligand_072
    27    29
SMALL
GAST_HUCK
****
This file was generated by PARSER (from files_GN.cpp)

@<TRIPOS>ATOM
      1 C1         34.0586   36.8067   46.6073 C.3         1 MOL       0.0781
      2 C2         32.6522   36.3807   46.4332 C.ar        1 MOL      -0.0219
      3 C3         34.5225   36.6199   45.2320 C.2         1 MOL       0.2144
      4 C4         34.2442   38.2523   47.1313 C.3         1 MOL      -0.0294
      5 C5         34.8501   35.9615   47.6364 C.3         1 MOL      -0.0531
      6 C6         32.4388   36.0158   45.1057 C.ar        1 MOL       0.0939
      7 C7         31.5985   36.2854   47.3657 C.ar        1 MOL      -0.0552
      8 N1         33.5780   36.1780   44.4332 N.am        1 MOL      -0.2200
      9 O1         35.6568   36.8399   44.8311 O.2         1 MOL      -0.3196
     10 C8         35.5888   38.2182   47.8899 C.3         1 MOL      -0.0449
     11 N2         35.9914   36.8049   48.0135 N.4         1 MOL       0.2177
     12 C9         31.1875   35.5652   44.6558 C.ar        1 MOL      -0.0098
     13 C10        30.3353   35.8275   46.9354 C.ar        1 MOL      -0.0486
     14 C11        30.1316   35.4741   45.5840 C.ar        1 MOL      -0.0475
     15 H1         33.4462   38.5156   47.8358 H           1 MOL       0.0183
     16 H2         34.2507   38.9947   46.3285 H           1 MOL       0.0183
     17 H3         35.1922   35.0085   47.2282 H           1 MOL       0.0667
     18 H4         34.2504   35.7642   48.5313 H           1 MOL       0.0667
     19 H5         31.7444   36.5369   48.3469 H           1 MOL       0.0771
     20 H6         33.7032   35.9829   43.4928 H           1 MOL       0.2404
     21 H7         35.4892   38.6634   48.8885 H           1 MOL       0.0802
     22 H8         36.3612   38.7674   47.3327 H           1 MOL       0.0802
     23 H9         36.7703   36.6193   47.3722 H           1 MOL       0.2001
     24 H10        36.2858   36.6029   48.9743 H           1 MOL       0.2001
     25 H11        31.0529   35.3050   43.6795 H           1 MOL       0.0591
     26 H12        29.5638   35.7536   47.6018 H           1 MOL       0.0588
     27 H13        29.2176   35.1457   45.2774 H           1 MOL       0.0799
@<TRIPOS>BOND
     1     1     2   1
     2     1     3   1
     3     1     4   1
     4     1     5   1
     5     2     6  ar
     6     2     7  ar
     7     3     8  am
     8     3     9   2
     9     4    10   1
    10     5    11   1
    11     6     8   1
    12     6    12  ar
    13     7    13  ar
    14    10    11   1
    15    12    14  ar
    16    13    14  ar
    17     4    15   1
    18     4    16   1
    19     5    17   1
    20     5    18   1
    21     7    19   1
    22     8    20   1
    23    10    21   1
    24    10    22   1
    25    11    23   1
    26    11    24   1
    27    12    25   1
    28    13    26   1
    29    14    27   1
@<TRIPOS>SUBSTRUCTURE
     1  MOL      1

