@<TRIPOS>MOLECULE
3udh_ligand_045
    27    29
SMALL
GAST_HUCK
****
This file was generated by PARSER (from files_GN.cpp)

@<TRIPOS>ATOM
      1 C1         32.1742   32.0450   43.1641 C.3         1 MOL       0.0781
      2 C2         31.5942   33.2698   43.7641 C.ar        1 MOL      -0.0219
      3 C3         33.5641   32.4878   43.0888 C.2         1 MOL       0.2144
      4 C4         31.9645   30.7710   44.0364 C.3         1 MOL      -0.0294
      5 C5         31.5521   31.6911   41.7836 C.3         1 MOL      -0.0531
      6 C6         32.6007   34.2069   43.9927 C.ar        1 MOL       0.0939
      7 C7         30.2564   33.5809   44.0804 C.ar        1 MOL      -0.0552
      8 N1         33.7570   33.6897   43.5846 N.am        1 MOL      -0.2200
      9 O1         34.4733   31.8447   42.5849 O.2         1 MOL      -0.3196
     10 C8         31.3222   29.7446   43.0859 C.3         1 MOL      -0.0449
     11 N2         30.6697   30.5491   42.0478 N.4         1 MOL       0.2177
     12 C9         32.3220   35.4704   44.5402 C.ar        1 MOL      -0.0098
     13 C10        29.9567   34.8428   44.6355 C.ar        1 MOL      -0.0486
     14 C11        30.9856   35.7830   44.8643 C.ar        1 MOL      -0.0475
     15 H1         31.2840   30.9603   44.8723 H           1 MOL       0.0183
     16 H2         32.8981   30.3733   44.4456 H           1 MOL       0.0183
     17 H3         32.3125   31.3810   41.0599 H           1 MOL       0.0667
     18 H4         30.9756   32.5084   41.3454 H           1 MOL       0.0667
     19 H5         29.5130   32.9031   43.9030 H           1 MOL       0.0771
     20 H6         34.6110   34.1496   43.6140 H           1 MOL       0.2404
     21 H7         30.5925   29.1152   43.6000 H           1 MOL       0.0802
     22 H8         32.0866   29.1081   42.6303 H           1 MOL       0.0802
     23 H9         30.5284   30.0037   41.1965 H           1 MOL       0.2001
     24 H10        29.7706   30.8884   42.3974 H           1 MOL       0.2001
     25 H11        33.0704   36.1493   44.6921 H           1 MOL       0.0591
     26 H12        28.9895   35.0786   44.8692 H           1 MOL       0.0588
     27 H13        30.7602   36.6976   45.2610 H           1 MOL       0.0799
@<TRIPOS>BOND
     1     1     2   1
     2     1     3   1
     3     1     4   1
     4     1     5   1
     5     2     6  ar
     6     2     7  ar
     7     3     8  am
     8     3     9   2
     9     4    10   1
    10     5    11   1
    11     6     8   1
    12     6    12  ar
    13     7    13  ar
    14    10    11   1
    15    12    14  ar
    16    13    14  ar
    17     4    15   1
    18     4    16   1
    19     5    17   1
    20     5    18   1
    21     7    19   1
    22     8    20   1
    23    10    21   1
    24    10    22   1
    25    11    23   1
    26    11    24   1
    27    12    25   1
    28    13    26   1
    29    14    27   1
@<TRIPOS>SUBSTRUCTURE
     1  MOL      1

