@<TRIPOS>MOLECULE
3udh_ligand_029
    27    29
SMALL
GAST_HUCK
****
This file was generated by PARSER (from files_GN.cpp)

@<TRIPOS>ATOM
      1 C1         18.1920   36.7472   44.2379 C.3         1 MOL       0.0781
      2 C2         18.0068   36.6496   45.7028 C.ar        1 MOL      -0.0219
      3 C3         18.5809   38.1549   44.1636 C.2         1 MOL       0.2144
      4 C4         19.2488   35.7760   43.6581 C.3         1 MOL      -0.0294
      5 C5         16.9311   36.4221   43.3976 C.3         1 MOL      -0.0531
      6 C6         18.3049   37.8755   46.2967 C.ar        1 MOL       0.0939
      7 C7         17.6111   35.5579   46.5063 C.ar        1 MOL      -0.0552
      8 N1         18.6424   38.7420   45.3436 N.am        1 MOL      -0.2200
      9 O1         18.8099   38.7518   43.1211 O.2         1 MOL      -0.3196
     10 C8         18.8434   35.6207   42.1803 C.3         1 MOL      -0.0449
     11 N2         17.4168   35.9791   42.0794 N.4         1 MOL       0.2177
     12 C9         18.2050   38.0726   47.6832 C.ar        1 MOL      -0.0098
     13 C10        17.5004   35.7396   47.9029 C.ar        1 MOL      -0.0486
     14 C11        17.8032   36.9860   48.4878 C.ar        1 MOL      -0.0475
     15 H1         19.1838   34.8012   44.1483 H           1 MOL       0.0183
     16 H2         20.2703   36.1520   43.7618 H           1 MOL       0.0183
     17 H3         16.2701   37.2823   43.2874 H           1 MOL       0.0667
     18 H4         16.3630   35.5996   43.8415 H           1 MOL       0.0667
     19 H5         17.3946   34.6526   46.0849 H           1 MOL       0.0771
     20 H6         18.8910   39.6700   45.5032 H           1 MOL       0.2404
     21 H7         19.0003   34.5994   41.8329 H           1 MOL       0.0802
     22 H8         19.4215   36.3027   41.5530 H           1 MOL       0.0802
     23 H9         17.3136   36.7296   41.3910 H           1 MOL       0.2001
     24 H10        16.8737   35.1682   41.7699 H           1 MOL       0.2001
     25 H11        18.4218   38.9782   48.0981 H           1 MOL       0.0591
     26 H12        17.2134   34.9509   48.4915 H           1 MOL       0.0588
     27 H13        17.7203   37.1047   49.4968 H           1 MOL       0.0799
@<TRIPOS>BOND
     1     1     2   1
     2     1     3   1
     3     1     4   1
     4     1     5   1
     5     2     6  ar
     6     2     7  ar
     7     3     8  am
     8     3     9   2
     9     4    10   1
    10     5    11   1
    11     6     8   1
    12     6    12  ar
    13     7    13  ar
    14    10    11   1
    15    12    14  ar
    16    13    14  ar
    17     4    15   1
    18     4    16   1
    19     5    17   1
    20     5    18   1
    21     7    19   1
    22     8    20   1
    23    10    21   1
    24    10    22   1
    25    11    23   1
    26    11    24   1
    27    12    25   1
    28    13    26   1
    29    14    27   1
@<TRIPOS>SUBSTRUCTURE
     1  MOL      1

