@<TRIPOS>MOLECULE
3udh_ligand_056
    27    29
SMALL
GAST_HUCK
****
This file was generated by PARSER (from files_GN.cpp)

@<TRIPOS>ATOM
      1 C1         23.9218   35.4024   42.6439 C.3         1 MOL       0.0781
      2 C2         24.6705   36.1919   41.6357 C.ar        1 MOL      -0.0219
      3 C3         22.8569   36.3643   42.9172 C.2         1 MOL       0.2144
      4 C4         23.4121   34.0339   42.0976 C.3         1 MOL      -0.0294
      5 C5         24.7692   35.0445   43.8995 C.3         1 MOL      -0.0531
      6 C6         24.0295   37.4125   41.4239 C.ar        1 MOL       0.0939
      7 C7         25.8512   35.8846   40.9290 C.ar        1 MOL      -0.0552
      8 N1         22.9531   37.4648   42.2056 N.am        1 MOL      -0.2200
      9 O1         21.9411   36.1880   43.7081 O.2         1 MOL      -0.3196
     10 C8         23.9220   32.9939   43.1127 C.3         1 MOL      -0.0449
     11 N2         25.0919   33.6204   43.7421 N.4         1 MOL       0.2177
     12 C9         24.5280   38.3611   40.5145 C.ar        1 MOL      -0.0098
     13 C10        26.3642   36.8220   40.0071 C.ar        1 MOL      -0.0486
     14 C11        25.7059   38.0553   39.8018 C.ar        1 MOL      -0.0475
     15 H1         23.8284   33.8076   41.1113 H           1 MOL       0.0183
     16 H2         22.3217   33.9814   42.0188 H           1 MOL       0.0183
     17 H3         24.2001   35.1682   44.8284 H           1 MOL       0.0667
     18 H4         25.6889   35.6289   43.9808 H           1 MOL       0.0667
     19 H5         26.3292   34.9943   41.0806 H           1 MOL       0.0771
     20 H6         22.3265   38.2038   42.2391 H           1 MOL       0.2404
     21 H7         24.1988   32.0549   42.6270 H           1 MOL       0.0802
     22 H8         23.1612   32.7927   43.8742 H           1 MOL       0.0802
     23 H9         25.2973   33.1897   44.6475 H           1 MOL       0.2001
     24 H10        25.8995   33.5266   43.1217 H           1 MOL       0.2001
     25 H11        24.0476   39.2538   40.3787 H           1 MOL       0.0591
     26 H12        27.2175   36.6101   39.4855 H           1 MOL       0.0588
     27 H13        26.0857   38.7326   39.1360 H           1 MOL       0.0799
@<TRIPOS>BOND
     1     1     2   1
     2     1     3   1
     3     1     4   1
     4     1     5   1
     5     2     6  ar
     6     2     7  ar
     7     3     8  am
     8     3     9   2
     9     4    10   1
    10     5    11   1
    11     6     8   1
    12     6    12  ar
    13     7    13  ar
    14    10    11   1
    15    12    14  ar
    16    13    14  ar
    17     4    15   1
    18     4    16   1
    19     5    17   1
    20     5    18   1
    21     7    19   1
    22     8    20   1
    23    10    21   1
    24    10    22   1
    25    11    23   1
    26    11    24   1
    27    12    25   1
    28    13    26   1
    29    14    27   1
@<TRIPOS>SUBSTRUCTURE
     1  MOL      1

