@<TRIPOS>MOLECULE
3udh_ligand_005
    27    29
SMALL
GAST_HUCK
****
This file was generated by PARSER (from files_GN.cpp)

@<TRIPOS>ATOM
      1 C1         23.4027   32.0380   45.6803 C.3         1 MOL       0.0781
      2 C2         23.5574   31.0270   46.7535 C.ar        1 MOL      -0.0219
      3 C3         23.2094   33.2147   46.5233 C.2         1 MOL       0.2144
      4 C4         24.6454   32.1322   44.7433 C.3         1 MOL      -0.0294
      5 C5         22.2032   31.7448   44.7351 C.3         1 MOL      -0.0531
      6 C6         23.4744   31.6471   47.9992 C.ar        1 MOL       0.0939
      7 C7         23.7504   29.6324   46.6730 C.ar        1 MOL      -0.0552
      8 N1         23.2833   32.9502   47.8099 N.am        1 MOL      -0.2200
      9 O1         23.0156   34.3460   46.1018 O.2         1 MOL      -0.3196
     10 C8         24.0763   31.9665   43.3222 C.3         1 MOL      -0.0449
     11 N2         22.8143   31.2385   43.5017 N.4         1 MOL       0.2177
     12 C9         23.5780   30.9173   49.1959 C.ar        1 MOL      -0.0098
     13 C10        23.8560   28.8819   47.8639 C.ar        1 MOL      -0.0486
     14 C11        23.7693   29.5228   49.1196 C.ar        1 MOL      -0.0475
     15 H1         25.3626   31.3280   44.9389 H           1 MOL       0.0183
     16 H2         25.1809   33.0825   44.8285 H           1 MOL       0.0183
     17 H3         21.6365   32.6486   44.4928 H           1 MOL       0.0667
     18 H4         21.5116   31.0017   45.1364 H           1 MOL       0.0667
     19 H5         23.8039   29.1677   45.7648 H           1 MOL       0.0771
     20 H6         23.2185   33.6083   48.5175 H           1 MOL       0.2404
     21 H7         24.7512   31.4054   42.6728 H           1 MOL       0.0802
     22 H8         23.8716   32.9414   42.8717 H           1 MOL       0.0802
     23 H9         22.2003   31.3859   42.7002 H           1 MOL       0.2001
     24 H10        23.0130   30.2423   43.6105 H           1 MOL       0.2001
     25 H11        23.5101   31.3881   50.0996 H           1 MOL       0.0591
     26 H12        23.9910   27.8706   47.8174 H           1 MOL       0.0588
     27 H13        23.8380   28.9720   49.9780 H           1 MOL       0.0799
@<TRIPOS>BOND
     1     1     2   1
     2     1     3   1
     3     1     4   1
     4     1     5   1
     5     2     6  ar
     6     2     7  ar
     7     3     8  am
     8     3     9   2
     9     4    10   1
    10     5    11   1
    11     6     8   1
    12     6    12  ar
    13     7    13  ar
    14    10    11   1
    15    12    14  ar
    16    13    14  ar
    17     4    15   1
    18     4    16   1
    19     5    17   1
    20     5    18   1
    21     7    19   1
    22     8    20   1
    23    10    21   1
    24    10    22   1
    25    11    23   1
    26    11    24   1
    27    12    25   1
    28    13    26   1
    29    14    27   1
@<TRIPOS>SUBSTRUCTURE
     1  MOL      1

