@<TRIPOS>MOLECULE
3udh_ligand_090
    27    29
SMALL
GAST_HUCK
****
This file was generated by PARSER (from files_GN.cpp)

@<TRIPOS>ATOM
      1 C1         26.8018   36.4652   42.1840 C.3         1 MOL       0.0781
      2 C2         27.1101   35.7822   40.9037 C.ar        1 MOL      -0.0219
      3 C3         25.4400   36.8953   41.8613 C.2         1 MOL       0.2144
      4 C4         26.9030   35.5213   43.4178 C.3         1 MOL      -0.0294
      5 C5         27.7701   37.6426   42.5022 C.3         1 MOL      -0.0531
      6 C6         26.0155   35.8714   40.0429 C.ar        1 MOL       0.0939
      7 C7         28.2838   35.1252   40.4814 C.ar        1 MOL      -0.0552
      8 N1         25.0444   36.5391   40.6596 N.am        1 MOL      -0.2200
      9 O1         24.7159   37.5344   42.6124 O.2         1 MOL      -0.3196
     10 C8         27.8426   36.2529   44.3944 C.3         1 MOL      -0.0449
     11 N2         28.6566   37.1457   43.5620 N.4         1 MOL       0.2177
     12 C9         26.0452   35.3201   38.7513 C.ar        1 MOL      -0.0098
     13 C10        28.3332   34.5653   39.1871 C.ar        1 MOL      -0.0486
     14 C11        27.2182   34.6622   38.3266 C.ar        1 MOL      -0.0475
     15 H1         27.3389   34.5552   43.1551 H           1 MOL       0.0183
     16 H2         25.9356   35.3322   43.8905 H           1 MOL       0.0183
     17 H3         27.2284   38.5139   42.8840 H           1 MOL       0.0667
     18 H4         28.3619   37.9533   41.6372 H           1 MOL       0.0667
     19 H5         29.0878   35.0524   41.1072 H           1 MOL       0.0771
     20 H6         24.1760   36.7353   40.2713 H           1 MOL       0.2404
     21 H7         28.4782   35.5569   44.9475 H           1 MOL       0.0802
     22 H8         27.2654   36.8483   45.1093 H           1 MOL       0.0802
     23 H9         29.0245   37.9180   44.1257 H           1 MOL       0.2001
     24 H10        29.4248   36.6085   43.1473 H           1 MOL       0.2001
     25 H11        25.2347   35.3950   38.1311 H           1 MOL       0.0591
     26 H12        29.1808   34.0883   38.8729 H           1 MOL       0.0588
     27 H13        27.2642   34.2583   37.3885 H           1 MOL       0.0799
@<TRIPOS>BOND
     1     1     2   1
     2     1     3   1
     3     1     4   1
     4     1     5   1
     5     2     6  ar
     6     2     7  ar
     7     3     8  am
     8     3     9   2
     9     4    10   1
    10     5    11   1
    11     6     8   1
    12     6    12  ar
    13     7    13  ar
    14    10    11   1
    15    12    14  ar
    16    13    14  ar
    17     4    15   1
    18     4    16   1
    19     5    17   1
    20     5    18   1
    21     7    19   1
    22     8    20   1
    23    10    21   1
    24    10    22   1
    25    11    23   1
    26    11    24   1
    27    12    25   1
    28    13    26   1
    29    14    27   1
@<TRIPOS>SUBSTRUCTURE
     1  MOL      1

