@<TRIPOS>MOLECULE
3udh_ligand_041
    27    29
SMALL
GAST_HUCK
****
This file was generated by PARSER (from files_GN.cpp)

@<TRIPOS>ATOM
      1 C1         16.8203   39.6863   43.2452 C.3         1 MOL       0.0781
      2 C2         17.2208   41.0452   43.6598 C.ar        1 MOL      -0.0219
      3 C3         15.6251   40.0451   42.4759 C.2         1 MOL       0.2144
      4 C4         17.8822   38.9231   42.4187 C.3         1 MOL      -0.0294
      5 C5         16.5647   38.7262   44.4338 C.3         1 MOL      -0.0531
      6 C6         16.3232   41.9793   43.1464 C.ar        1 MOL       0.0939
      7 C7         18.3068   41.4699   44.4472 C.ar        1 MOL      -0.0552
      8 N1         15.4000   41.3410   42.4361 N.am        1 MOL      -0.2200
      9 O1         14.9153   39.2584   41.8667 O.2         1 MOL      -0.3196
     10 C8         17.5383   37.4398   42.6518 C.3         1 MOL      -0.0449
     11 N2         16.7676   37.3697   43.9060 N.4         1 MOL       0.2177
     12 C9         16.4671   43.3533   43.3906 C.ar        1 MOL      -0.0098
     13 C10        18.4626   42.8440   44.7123 C.ar        1 MOL      -0.0486
     14 C11        17.5502   43.7835   44.1868 C.ar        1 MOL      -0.0475
     15 H1         18.8845   39.1124   42.8120 H           1 MOL       0.0183
     16 H2         17.8727   39.1843   41.3563 H           1 MOL       0.0183
     17 H3         15.5566   38.8297   44.8437 H           1 MOL       0.0667
     18 H4         17.2834   38.8831   45.2432 H           1 MOL       0.0667
     19 H5         18.9707   40.7921   44.8232 H           1 MOL       0.0771
     20 H6         14.7013   41.7836   41.9253 H           1 MOL       0.2404
     21 H7         18.4433   36.8310   42.7238 H           1 MOL       0.0802
     22 H8         16.9228   37.0587   41.8347 H           1 MOL       0.0802
     23 H9         15.8496   36.9719   43.7174 H           1 MOL       0.2001
     24 H10        17.2555   36.7892   44.5928 H           1 MOL       0.2001
     25 H11        15.8013   44.0189   42.9940 H           1 MOL       0.0591
     26 H12        19.2488   43.1634   45.2769 H           1 MOL       0.0588
     27 H13        17.6831   44.7772   44.3815 H           1 MOL       0.0799
@<TRIPOS>BOND
     1     1     2   1
     2     1     3   1
     3     1     4   1
     4     1     5   1
     5     2     6  ar
     6     2     7  ar
     7     3     8  am
     8     3     9   2
     9     4    10   1
    10     5    11   1
    11     6     8   1
    12     6    12  ar
    13     7    13  ar
    14    10    11   1
    15    12    14  ar
    16    13    14  ar
    17     4    15   1
    18     4    16   1
    19     5    17   1
    20     5    18   1
    21     7    19   1
    22     8    20   1
    23    10    21   1
    24    10    22   1
    25    11    23   1
    26    11    24   1
    27    12    25   1
    28    13    26   1
    29    14    27   1
@<TRIPOS>SUBSTRUCTURE
     1  MOL      1

