@<TRIPOS>MOLECULE
3udh_ligand_019
    27    29
SMALL
GAST_HUCK
****
This file was generated by PARSER (from files_GN.cpp)

@<TRIPOS>ATOM
      1 C1         15.9710   40.5162   43.0705 C.3         1 MOL       0.0781
      2 C2         14.7868   40.9408   43.8547 C.ar        1 MOL      -0.0219
      3 C3         16.5282   39.5628   44.0266 C.2         1 MOL       0.2144
      4 C4         15.6169   39.8960   41.6864 C.3         1 MOL      -0.0294
      5 C5         16.9376   41.6912   42.7495 C.3         1 MOL      -0.0531
      6 C6         14.7736   40.2759   45.0810 C.ar        1 MOL       0.0939
      7 C7         13.7738   41.8698   43.5440 C.ar        1 MOL      -0.0552
      8 N1         15.8304   39.4677   45.1349 N.am        1 MOL      -0.2200
      9 O1         17.5419   38.9051   43.8392 O.2         1 MOL      -0.3196
     10 C8         16.4836   40.6746   40.6794 C.3         1 MOL      -0.0449
     11 N2         16.7327   41.9694   41.3239 N.4         1 MOL       0.2177
     12 C9         13.7624   40.5032   46.0300 C.ar        1 MOL      -0.0098
     13 C10        12.7545   42.1166   44.4890 C.ar        1 MOL      -0.0486
     14 C11        12.7500   41.4349   45.7257 C.ar        1 MOL      -0.0475
     15 H1         14.5616   40.0388   41.4361 H           1 MOL       0.0183
     16 H2         15.8369   38.8257   41.6292 H           1 MOL       0.0183
     17 H3         17.9845   41.4083   42.8980 H           1 MOL       0.0667
     18 H4         16.7393   42.5894   43.3400 H           1 MOL       0.0667
     19 H5         13.7759   42.3604   42.6478 H           1 MOL       0.0771
     20 H6         16.0562   38.8958   45.8860 H           1 MOL       0.2404
     21 H7         15.9746   40.8131   39.7232 H           1 MOL       0.0802
     22 H8         17.4342   40.1603   40.5074 H           1 MOL       0.0802
     23 H9         17.5508   42.4304   40.9200 H           1 MOL       0.2001
     24 H10        15.9098   42.5651   41.2108 H           1 MOL       0.2001
     25 H11        13.7637   40.0027   46.9214 H           1 MOL       0.0591
     26 H12        12.0172   42.7914   44.2761 H           1 MOL       0.0588
     27 H13        12.0079   41.6188   46.4048 H           1 MOL       0.0799
@<TRIPOS>BOND
     1     1     2   1
     2     1     3   1
     3     1     4   1
     4     1     5   1
     5     2     6  ar
     6     2     7  ar
     7     3     8  am
     8     3     9   2
     9     4    10   1
    10     5    11   1
    11     6     8   1
    12     6    12  ar
    13     7    13  ar
    14    10    11   1
    15    12    14  ar
    16    13    14  ar
    17     4    15   1
    18     4    16   1
    19     5    17   1
    20     5    18   1
    21     7    19   1
    22     8    20   1
    23    10    21   1
    24    10    22   1
    25    11    23   1
    26    11    24   1
    27    12    25   1
    28    13    26   1
    29    14    27   1
@<TRIPOS>SUBSTRUCTURE
     1  MOL      1

