@<TRIPOS>MOLECULE
3udh_ligand_073
    27    29
SMALL
GAST_HUCK
****
This file was generated by PARSER (from files_GN.cpp)

@<TRIPOS>ATOM
      1 C1         16.0470   36.3711   47.5112 C.3         1 MOL       0.0781
      2 C2         15.9836   37.3174   48.6442 C.ar        1 MOL      -0.0219
      3 C3         16.9300   35.3679   48.1071 C.2         1 MOL       0.2144
      4 C4         14.6772   35.8005   47.0758 C.3         1 MOL      -0.0294
      5 C5         16.6026   36.9782   46.2001 C.3         1 MOL      -0.0531
      6 C6         16.7531   36.8328   49.7012 C.ar        1 MOL       0.0939
      7 C7         15.2986   38.5435   48.7716 C.ar        1 MOL      -0.0552
      8 N1         17.2910   35.6694   49.3347 N.am        1 MOL      -0.2200
      9 O1         17.2898   34.3345   47.5606 O.2         1 MOL      -0.3196
     10 C8         14.9041   35.3857   45.6093 C.3         1 MOL      -0.0449
     11 N2         16.0580   36.1531   45.1107 N.4         1 MOL       0.2177
     12 C9         16.8698   37.5412   50.9094 C.ar        1 MOL      -0.0098
     13 C10        15.4039   39.2666   49.9779 C.ar        1 MOL      -0.0486
     14 C11        16.1868   38.7676   51.0416 C.ar        1 MOL      -0.0475
     15 H1         13.9058   36.5753   47.1129 H           1 MOL       0.0183
     16 H2         14.3508   34.9559   47.6902 H           1 MOL       0.0183
     17 H3         17.6951   36.9871   46.1662 H           1 MOL       0.0667
     18 H4         16.2427   38.0014   46.0603 H           1 MOL       0.0667
     19 H5         14.7333   38.9062   48.0015 H           1 MOL       0.0771
     20 H6         17.8691   35.1248   49.8922 H           1 MOL       0.2404
     21 H7         14.0194   35.5881   45.0004 H           1 MOL       0.0802
     22 H8         15.1397   34.3206   45.5469 H           1 MOL       0.0802
     23 H9         16.7762   35.5060   44.7785 H           1 MOL       0.2001
     24 H10        15.7543   36.7539   44.3430 H           1 MOL       0.2001
     25 H11        17.4383   37.1740   51.6755 H           1 MOL       0.0591
     26 H12        14.9107   40.1562   50.0810 H           1 MOL       0.0588
     27 H13        16.2587   39.2988   51.9123 H           1 MOL       0.0799
@<TRIPOS>BOND
     1     1     2   1
     2     1     3   1
     3     1     4   1
     4     1     5   1
     5     2     6  ar
     6     2     7  ar
     7     3     8  am
     8     3     9   2
     9     4    10   1
    10     5    11   1
    11     6     8   1
    12     6    12  ar
    13     7    13  ar
    14    10    11   1
    15    12    14  ar
    16    13    14  ar
    17     4    15   1
    18     4    16   1
    19     5    17   1
    20     5    18   1
    21     7    19   1
    22     8    20   1
    23    10    21   1
    24    10    22   1
    25    11    23   1
    26    11    24   1
    27    12    25   1
    28    13    26   1
    29    14    27   1
@<TRIPOS>SUBSTRUCTURE
     1  MOL      1

