@<TRIPOS>MOLECULE
3udh_ligand_071
    27    29
SMALL
GAST_HUCK
****
This file was generated by PARSER (from files_GN.cpp)

@<TRIPOS>ATOM
      1 C1         17.1077   38.3922   47.8126 C.3         1 MOL       0.0781
      2 C2         17.8674   37.5916   46.8229 C.ar        1 MOL      -0.0219
      3 C3         16.2885   37.3169   48.3687 C.2         1 MOL       0.2144
      4 C4         18.0099   39.1108   48.8598 C.3         1 MOL      -0.0294
      5 C5         16.2714   39.5283   47.1573 C.3         1 MOL      -0.0531
      6 C6         17.4562   36.2604   46.8776 C.ar        1 MOL       0.0939
      7 C7         18.8534   37.9858   45.8939 C.ar        1 MOL      -0.0552
      8 N1         16.5142   36.1472   47.8124 N.am        1 MOL      -0.2200
      9 O1         15.4676   37.4576   49.2637 O.2         1 MOL      -0.3196
     10 C8         17.5525   40.5803   48.8253 C.3         1 MOL      -0.0449
     11 N2         16.9938   40.7652   47.4827 N.4         1 MOL       0.2177
     12 C9         18.0025   35.2835   46.0276 C.ar        1 MOL      -0.0098
     13 C10        19.4159   37.0177   45.0361 C.ar        1 MOL      -0.0486
     14 C11        18.9914   35.6731   45.1010 C.ar        1 MOL      -0.0475
     15 H1         19.0672   39.0584   48.5851 H           1 MOL       0.0183
     16 H2         17.9044   38.7075   49.8706 H           1 MOL       0.0183
     17 H3         15.2679   39.5946   47.5894 H           1 MOL       0.0667
     18 H4         16.1687   39.4209   46.0749 H           1 MOL       0.0667
     19 H5         19.1550   38.9606   45.8402 H           1 MOL       0.0771
     20 H6         16.0581   35.3225   48.0448 H           1 MOL       0.2404
     21 H7         18.3864   41.2683   48.9877 H           1 MOL       0.0802
     22 H8         16.7794   40.7650   49.5774 H           1 MOL       0.0802
     23 H9         16.3682   41.5738   47.4496 H           1 MOL       0.2001
     24 H10        17.7766   40.9030   46.8397 H           1 MOL       0.2001
     25 H11        17.6834   34.3140   46.0752 H           1 MOL       0.0591
     26 H12        20.1323   37.2904   44.3597 H           1 MOL       0.0588
     27 H13        19.3982   34.9799   44.4698 H           1 MOL       0.0799
@<TRIPOS>BOND
     1     1     2   1
     2     1     3   1
     3     1     4   1
     4     1     5   1
     5     2     6  ar
     6     2     7  ar
     7     3     8  am
     8     3     9   2
     9     4    10   1
    10     5    11   1
    11     6     8   1
    12     6    12  ar
    13     7    13  ar
    14    10    11   1
    15    12    14  ar
    16    13    14  ar
    17     4    15   1
    18     4    16   1
    19     5    17   1
    20     5    18   1
    21     7    19   1
    22     8    20   1
    23    10    21   1
    24    10    22   1
    25    11    23   1
    26    11    24   1
    27    12    25   1
    28    13    26   1
    29    14    27   1
@<TRIPOS>SUBSTRUCTURE
     1  MOL      1

