@<TRIPOS>MOLECULE
3udh_ligand_015
    27    29
SMALL
GAST_HUCK
****
This file was generated by PARSER (from files_GN.cpp)

@<TRIPOS>ATOM
      1 C1         33.7987   37.4372   46.7783 C.3         1 MOL       0.0781
      2 C2         34.1475   38.8331   47.1350 C.ar        1 MOL      -0.0219
      3 C3         33.6316   36.9092   48.1303 C.2         1 MOL       0.2144
      4 C4         32.5270   37.3174   45.8877 C.3         1 MOL      -0.0294
      5 C5         34.9207   36.7179   45.9762 C.3         1 MOL      -0.0531
      6 C6         34.1685   38.9730   48.5224 C.ar        1 MOL       0.0939
      7 C7         34.4562   39.9345   46.3106 C.ar        1 MOL      -0.0552
      8 N1         33.8564   37.7997   49.0704 N.am        1 MOL      -0.2200
      9 O1         33.3164   35.7573   48.3936 O.2         1 MOL      -0.3196
     10 C8         32.9679   36.4476   44.6972 C.3         1 MOL      -0.0449
     11 N2         34.4177   36.6515   44.5986 N.4         1 MOL       0.2177
     12 C9         34.4878   40.1973   49.1350 C.ar        1 MOL      -0.0098
     13 C10        34.7867   41.1691   46.9079 C.ar        1 MOL      -0.0486
     14 C11        34.8021   41.2997   48.3140 C.ar        1 MOL      -0.0475
     15 H1         32.2031   38.2916   45.5135 H           1 MOL       0.0183
     16 H2         31.6811   36.8562   46.4055 H           1 MOL       0.0183
     17 H3         35.0823   35.6952   46.3315 H           1 MOL       0.0667
     18 H4         35.8772   37.2445   46.0027 H           1 MOL       0.0667
     19 H5         34.4472   39.8407   45.2934 H           1 MOL       0.0771
     20 H6         33.8026   37.6284   50.0240 H           1 MOL       0.2404
     21 H7         32.4745   36.7482   43.7702 H           1 MOL       0.0802
     22 H8         32.7560   35.3918   44.8909 H           1 MOL       0.0802
     23 H9         34.8574   35.8856   44.0825 H           1 MOL       0.2001
     24 H10        34.5878   37.5414   44.1238 H           1 MOL       0.2001
     25 H11        34.4954   40.2835   50.1533 H           1 MOL       0.0591
     26 H12        35.0156   41.9734   46.3192 H           1 MOL       0.0588
     27 H13        35.0411   42.1977   48.7393 H           1 MOL       0.0799
@<TRIPOS>BOND
     1     1     2   1
     2     1     3   1
     3     1     4   1
     4     1     5   1
     5     2     6  ar
     6     2     7  ar
     7     3     8  am
     8     3     9   2
     9     4    10   1
    10     5    11   1
    11     6     8   1
    12     6    12  ar
    13     7    13  ar
    14    10    11   1
    15    12    14  ar
    16    13    14  ar
    17     4    15   1
    18     4    16   1
    19     5    17   1
    20     5    18   1
    21     7    19   1
    22     8    20   1
    23    10    21   1
    24    10    22   1
    25    11    23   1
    26    11    24   1
    27    12    25   1
    28    13    26   1
    29    14    27   1
@<TRIPOS>SUBSTRUCTURE
     1  MOL      1

