@<TRIPOS>MOLECULE
3udh_ligand_011
    27    29
SMALL
GAST_HUCK
****
This file was generated by PARSER (from files_GN.cpp)

@<TRIPOS>ATOM
      1 C1         21.4806   35.3244   41.3368 C.3         1 MOL       0.0781
      2 C2         20.5992   34.3400   42.0034 C.ar        1 MOL      -0.0219
      3 C3         20.4477   36.1616   40.7258 C.2         1 MOL       0.2144
      4 C4         22.4157   36.1039   42.2906 C.3         1 MOL      -0.0294
      5 C5         22.4690   34.7106   40.3134 C.3         1 MOL      -0.0531
      6 C6         19.2647   34.6537   41.7441 C.ar        1 MOL       0.0939
      7 C7         20.9188   33.2181   42.7956 C.ar        1 MOL      -0.0552
      8 N1         19.2281   35.7420   40.9758 N.am        1 MOL      -0.2200
      9 O1         20.6593   37.1877   40.0945 O.2         1 MOL      -0.3196
     10 C8         23.5737   36.5587   41.3796 C.3         1 MOL      -0.0449
     11 N2         23.5898   35.6556   40.2117 N.4         1 MOL       0.2177
     12 C9         18.2123   33.8786   42.2612 C.ar        1 MOL      -0.0098
     13 C10        19.8760   32.4248   43.3161 C.ar        1 MOL      -0.0486
     14 C11        18.5285   32.7542   43.0519 C.ar        1 MOL      -0.0475
     15 H1         22.8103   35.4428   43.0674 H           1 MOL       0.0183
     16 H2         21.9234   36.9528   42.7753 H           1 MOL       0.0183
     17 H3         22.0181   34.5497   39.3297 H           1 MOL       0.0667
     18 H4         22.8687   33.7573   40.6708 H           1 MOL       0.0667
     19 H5         21.8936   32.9769   42.9844 H           1 MOL       0.0771
     20 H6         18.4178   36.1701   40.6557 H           1 MOL       0.2404
     21 H7         24.5281   36.5114   41.9072 H           1 MOL       0.0802
     22 H8         23.4095   37.5826   41.0371 H           1 MOL       0.0802
     23 H9         23.4841   36.1907   39.3477 H           1 MOL       0.2001
     24 H10        24.4726   35.1395   40.1794 H           1 MOL       0.2001
     25 H11        17.2395   34.1235   42.0665 H           1 MOL       0.0591
     26 H12        20.0981   31.6062   43.8860 H           1 MOL       0.0588
     27 H13        17.7789   32.1742   43.4355 H           1 MOL       0.0799
@<TRIPOS>BOND
     1     1     2   1
     2     1     3   1
     3     1     4   1
     4     1     5   1
     5     2     6  ar
     6     2     7  ar
     7     3     8  am
     8     3     9   2
     9     4    10   1
    10     5    11   1
    11     6     8   1
    12     6    12  ar
    13     7    13  ar
    14    10    11   1
    15    12    14  ar
    16    13    14  ar
    17     4    15   1
    18     4    16   1
    19     5    17   1
    20     5    18   1
    21     7    19   1
    22     8    20   1
    23    10    21   1
    24    10    22   1
    25    11    23   1
    26    11    24   1
    27    12    25   1
    28    13    26   1
    29    14    27   1
@<TRIPOS>SUBSTRUCTURE
     1  MOL      1

