@<TRIPOS>MOLECULE
3udh_ligand_008
    27    29
SMALL
GAST_HUCK
****
This file was generated by PARSER (from files_GN.cpp)

@<TRIPOS>ATOM
      1 C1         26.1782   36.4710   42.4076 C.3         1 MOL       0.0781
      2 C2         24.8524   35.8419   42.6257 C.ar        1 MOL      -0.0219
      3 C3         26.5506   35.7605   41.1859 C.2         1 MOL       0.2144
      4 C4         26.1146   38.0193   42.2501 C.3         1 MOL      -0.0294
      5 C5         27.1719   36.2268   43.5797 C.3         1 MOL      -0.0531
      6 C6         24.6061   34.9041   41.6232 C.ar        1 MOL       0.0939
      7 C7         23.8964   36.0483   43.6425 C.ar        1 MOL      -0.0552
      8 N1         25.6449   34.8943   40.7912 N.am        1 MOL      -0.2200
      9 O1         27.5917   35.9321   40.5680 O.2         1 MOL      -0.3196
     10 C8         27.1472   38.5533   43.2587 C.3         1 MOL      -0.0449
     11 N2         27.2528   37.5129   44.2806 N.4         1 MOL       0.2177
     12 C9         23.4237   34.1456   41.5946 C.ar        1 MOL      -0.0098
     13 C10        22.7054   35.2928   43.6337 C.ar        1 MOL      -0.0486
     14 C11        22.4695   34.3443   42.6140 C.ar        1 MOL      -0.0475
     15 H1         25.1261   38.4120   42.5070 H           1 MOL       0.0183
     16 H2         26.3604   38.3595   41.2399 H           1 MOL       0.0183
     17 H3         28.1731   35.9660   43.2219 H           1 MOL       0.0667
     18 H4         26.8392   35.4450   44.2660 H           1 MOL       0.0667
     19 H5         24.0595   36.7389   44.3761 H           1 MOL       0.0771
     20 H6         25.7094   34.3257   40.0093 H           1 MOL       0.2404
     21 H7         26.8251   39.4906   43.7155 H           1 MOL       0.0802
     22 H8         28.1187   38.6948   42.7776 H           1 MOL       0.0802
     23 H9         28.1223   37.6068   44.8113 H           1 MOL       0.2001
     24 H10        26.4566   37.5995   44.9093 H           1 MOL       0.2001
     25 H11        23.2606   33.4617   40.8527 H           1 MOL       0.0591
     26 H12        22.0096   35.4330   44.3699 H           1 MOL       0.0588
     27 H13        21.6044   33.7992   42.6129 H           1 MOL       0.0799
@<TRIPOS>BOND
     1     1     2   1
     2     1     3   1
     3     1     4   1
     4     1     5   1
     5     2     6  ar
     6     2     7  ar
     7     3     8  am
     8     3     9   2
     9     4    10   1
    10     5    11   1
    11     6     8   1
    12     6    12  ar
    13     7    13  ar
    14    10    11   1
    15    12    14  ar
    16    13    14  ar
    17     4    15   1
    18     4    16   1
    19     5    17   1
    20     5    18   1
    21     7    19   1
    22     8    20   1
    23    10    21   1
    24    10    22   1
    25    11    23   1
    26    11    24   1
    27    12    25   1
    28    13    26   1
    29    14    27   1
@<TRIPOS>SUBSTRUCTURE
     1  MOL      1

