@<TRIPOS>MOLECULE
3udh_ligand_054
    27    29
SMALL
GAST_HUCK
****
This file was generated by PARSER (from files_GN.cpp)

@<TRIPOS>ATOM
      1 C1         16.4726   37.6517   46.5684 C.3         1 MOL       0.0781
      2 C2         16.7181   38.9314   45.8709 C.ar        1 MOL      -0.0219
      3 C3         15.0131   37.7254   46.6555 C.2         1 MOL       0.2144
      4 C4         16.9782   36.4006   45.8126 C.3         1 MOL      -0.0294
      5 C5         17.1700   37.5296   47.9458 C.3         1 MOL      -0.0531
      6 C6         15.5042   39.5754   45.6329 C.ar        1 MOL       0.0939
      7 C7         17.9279   39.5258   45.4545 C.ar        1 MOL      -0.0552
      8 N1         14.5203   38.8179   46.1170 N.am        1 MOL      -0.2200
      9 O1         14.2973   36.8752   47.1650 O.2         1 MOL      -0.3196
     10 C8         17.1720   35.3517   46.9251 C.3         1 MOL      -0.0449
     11 N2         17.3175   36.0866   48.1941 N.4         1 MOL       0.2177
     12 C9         15.4477   40.8209   44.9823 C.ar        1 MOL      -0.0098
     13 C10        17.8882   40.7743   44.7983 C.ar        1 MOL      -0.0486
     14 C11        16.6534   41.4185   44.5652 C.ar        1 MOL      -0.0475
     15 H1         17.9442   36.6005   45.3383 H           1 MOL       0.0183
     16 H2         16.2790   36.0545   45.0449 H           1 MOL       0.0183
     17 H3         16.6007   38.0006   48.7517 H           1 MOL       0.0667
     18 H4         18.1713   37.9713   47.9214 H           1 MOL       0.0667
     19 H5         18.8223   39.0628   45.6276 H           1 MOL       0.0771
     20 H6         13.5760   39.0406   46.0763 H           1 MOL       0.2404
     21 H7         18.0556   34.7359   46.7390 H           1 MOL       0.0802
     22 H8         16.2953   34.7025   46.9942 H           1 MOL       0.0802
     23 H9         16.5946   35.7765   48.8475 H           1 MOL       0.2001
     24 H10        18.2363   35.8962   48.5976 H           1 MOL       0.2001
     25 H11        14.5500   41.2815   44.8166 H           1 MOL       0.0591
     26 H12        18.7585   41.2155   44.4943 H           1 MOL       0.0588
     27 H13        16.6346   42.3246   44.0905 H           1 MOL       0.0799
@<TRIPOS>BOND
     1     1     2   1
     2     1     3   1
     3     1     4   1
     4     1     5   1
     5     2     6  ar
     6     2     7  ar
     7     3     8  am
     8     3     9   2
     9     4    10   1
    10     5    11   1
    11     6     8   1
    12     6    12  ar
    13     7    13  ar
    14    10    11   1
    15    12    14  ar
    16    13    14  ar
    17     4    15   1
    18     4    16   1
    19     5    17   1
    20     5    18   1
    21     7    19   1
    22     8    20   1
    23    10    21   1
    24    10    22   1
    25    11    23   1
    26    11    24   1
    27    12    25   1
    28    13    26   1
    29    14    27   1
@<TRIPOS>SUBSTRUCTURE
     1  MOL      1

