@<TRIPOS>MOLECULE
3udh_ligand_055
    27    29
SMALL
GAST_HUCK
****
This file was generated by PARSER (from files_GN.cpp)

@<TRIPOS>ATOM
      1 C1         27.1234   35.4475   42.4658 C.3         1 MOL       0.0781
      2 C2         25.9651   35.0672   43.3103 C.ar        1 MOL      -0.0219
      3 C3         27.7549   34.1328   42.3754 C.2         1 MOL       0.2144
      4 C4         26.7204   36.0638   41.0926 C.3         1 MOL      -0.0294
      5 C5         28.0361   36.5171   43.1338 C.3         1 MOL      -0.0531
      6 C6         26.0321   33.7093   43.6211 C.ar        1 MOL       0.0939
      7 C7         24.9020   35.8509   43.8039 C.ar        1 MOL      -0.0552
      8 N1         27.1141   33.1968   43.0393 N.am        1 MOL      -0.2200
      9 O1         28.7782   33.8938   41.7512 O.2         1 MOL      -0.3196
     10 C8         27.5040   37.3872   41.0099 C.3         1 MOL      -0.0449
     11 N2         27.7730   37.7605   42.4023 N.4         1 MOL       0.2177
     12 C9         25.0624   33.0884   44.4271 C.ar        1 MOL      -0.0098
     13 C10        23.9179   35.2447   44.6138 C.ar        1 MOL      -0.0486
     14 C11        23.9982   33.8688   44.9226 C.ar        1 MOL      -0.0475
     15 H1         25.6484   36.2795   41.0449 H           1 MOL       0.0183
     16 H2         26.9738   35.4227   40.2446 H           1 MOL       0.0183
     17 H3         29.0979   36.2753   43.0177 H           1 MOL       0.0667
     18 H4         27.8308   36.6567   44.1985 H           1 MOL       0.0667
     19 H5         24.8437   36.8471   43.5805 H           1 MOL       0.0771
     20 H6         27.3878   32.2670   43.0975 H           1 MOL       0.2404
     21 H7         26.9317   38.1702   40.5085 H           1 MOL       0.0802
     22 H8         28.4519   37.2428   40.4830 H           1 MOL       0.0802
     23 H9         28.5797   38.3843   42.4581 H           1 MOL       0.2001
     24 H10        26.9496   38.2220   42.7966 H           1 MOL       0.2001
     25 H11        25.1291   32.0930   44.6481 H           1 MOL       0.0591
     26 H12        23.1456   35.8043   44.9807 H           1 MOL       0.0588
     27 H13        23.2814   33.4364   45.5099 H           1 MOL       0.0799
@<TRIPOS>BOND
     1     1     2   1
     2     1     3   1
     3     1     4   1
     4     1     5   1
     5     2     6  ar
     6     2     7  ar
     7     3     8  am
     8     3     9   2
     9     4    10   1
    10     5    11   1
    11     6     8   1
    12     6    12  ar
    13     7    13  ar
    14    10    11   1
    15    12    14  ar
    16    13    14  ar
    17     4    15   1
    18     4    16   1
    19     5    17   1
    20     5    18   1
    21     7    19   1
    22     8    20   1
    23    10    21   1
    24    10    22   1
    25    11    23   1
    26    11    24   1
    27    12    25   1
    28    13    26   1
    29    14    27   1
@<TRIPOS>SUBSTRUCTURE
     1  MOL      1

