@<TRIPOS>MOLECULE
3udh_ligand_068
    27    29
SMALL
GAST_HUCK
****
This file was generated by PARSER (from files_GN.cpp)

@<TRIPOS>ATOM
      1 C1         31.5930   35.4536   45.1923 C.3         1 MOL       0.0781
      2 C2         31.6290   35.4986   46.6734 C.ar        1 MOL      -0.0219
      3 C3         32.9491   34.9636   44.9613 C.2         1 MOL       0.2144
      4 C4         30.4760   34.5305   44.6204 C.3         1 MOL      -0.0294
      5 C5         31.3312   36.8452   44.5505 C.3         1 MOL      -0.0531
      6 C6         32.8833   35.0889   47.1244 C.ar        1 MOL       0.0939
      7 C7         30.6399   35.8915   47.5980 C.ar        1 MOL      -0.0552
      8 N1         33.6327   34.7815   46.0677 N.am        1 MOL      -0.2200
      9 O1         33.4244   34.7359   43.8582 O.2         1 MOL      -0.3196
     10 C8         29.7224   35.4143   43.6092 C.3         1 MOL      -0.0449
     11 N2         29.9449   36.7871   44.0748 N.4         1 MOL       0.2177
     12 C9         33.1967   35.0496   48.4932 C.ar        1 MOL      -0.0098
     13 C10        30.9399   35.8663   48.9764 C.ar        1 MOL      -0.0486
     14 C11        32.2127   35.4464   49.4211 C.ar        1 MOL      -0.0475
     15 H1         29.7795   34.2049   45.3995 H           1 MOL       0.0183
     16 H2         30.8724   33.6387   44.1246 H           1 MOL       0.0183
     17 H3         31.9829   37.0242   43.6903 H           1 MOL       0.0667
     18 H4         31.4545   37.6755   45.2500 H           1 MOL       0.0667
     19 H5         29.7184   36.1917   47.2754 H           1 MOL       0.0771
     20 H6         34.5521   34.4737   46.1065 H           1 MOL       0.2404
     21 H7         28.6548   35.1854   43.5825 H           1 MOL       0.0802
     22 H8         30.1385   35.2946   42.6043 H           1 MOL       0.0802
     23 H9         29.7873   37.4620   43.3233 H           1 MOL       0.2001
     24 H10        29.3126   36.9850   44.8532 H           1 MOL       0.2001
     25 H11        34.1187   34.7399   48.8078 H           1 MOL       0.0591
     26 H12        30.2319   36.1535   49.6555 H           1 MOL       0.0588
     27 H13        32.4219   35.4306   50.4216 H           1 MOL       0.0799
@<TRIPOS>BOND
     1     1     2   1
     2     1     3   1
     3     1     4   1
     4     1     5   1
     5     2     6  ar
     6     2     7  ar
     7     3     8  am
     8     3     9   2
     9     4    10   1
    10     5    11   1
    11     6     8   1
    12     6    12  ar
    13     7    13  ar
    14    10    11   1
    15    12    14  ar
    16    13    14  ar
    17     4    15   1
    18     4    16   1
    19     5    17   1
    20     5    18   1
    21     7    19   1
    22     8    20   1
    23    10    21   1
    24    10    22   1
    25    11    23   1
    26    11    24   1
    27    12    25   1
    28    13    26   1
    29    14    27   1
@<TRIPOS>SUBSTRUCTURE
     1  MOL      1

