@<TRIPOS>MOLECULE
3udh_ligand_040
    27    29
SMALL
GAST_HUCK
****
This file was generated by PARSER (from files_GN.cpp)

@<TRIPOS>ATOM
      1 C1         20.6662   35.8943   42.1062 C.3         1 MOL       0.0781
      2 C2         21.8188   36.7627   41.7815 C.ar        1 MOL      -0.0219
      3 C3         20.0019   35.9088   40.8027 C.2         1 MOL       0.2144
      4 C4         21.0419   34.4723   42.5816 C.3         1 MOL      -0.0294
      5 C5         19.7712   36.4130   43.2607 C.3         1 MOL      -0.0531
      6 C6         21.7191   37.1867   40.4561 C.ar        1 MOL       0.0939
      7 C7         22.9160   37.1674   42.5694 C.ar        1 MOL      -0.0552
      8 N1         20.6266   36.6508   39.9166 N.am        1 MOL      -0.2200
      9 O1         18.9892   35.2849   40.5194 O.2         1 MOL      -0.3196
     10 C8         19.8094   34.0135   43.3852 C.3         1 MOL      -0.0449
     11 N2         19.0857   35.2285   43.8022 N.4         1 MOL       0.2177
     12 C9         22.6837   38.0278   39.8768 C.ar        1 MOL      -0.0098
     13 C10        23.9159   37.9809   41.9912 C.ar        1 MOL      -0.0486
     14 C11        23.7937   38.4180   40.6542 C.ar        1 MOL      -0.0475
     15 H1         21.9107   34.5031   43.2477 H           1 MOL       0.0183
     16 H2         21.2631   33.7887   41.7555 H           1 MOL       0.0183
     17 H3         19.0463   37.1600   42.9315 H           1 MOL       0.0667
     18 H4         20.3801   36.8484   44.0578 H           1 MOL       0.0667
     19 H5         22.9978   36.8693   43.5431 H           1 MOL       0.0771
     20 H6         20.3535   36.7608   38.9928 H           1 MOL       0.2404
     21 H7         20.0997   33.4261   44.2586 H           1 MOL       0.0802
     22 H8         19.1494   33.4085   42.7577 H           1 MOL       0.0802
     23 H9         18.1304   35.1928   43.4382 H           1 MOL       0.2001
     24 H10        19.0531   35.2848   44.8232 H           1 MOL       0.2001
     25 H11        22.5844   38.3416   38.9104 H           1 MOL       0.0591
     26 H12        24.7285   38.2586   42.5451 H           1 MOL       0.0588
     27 H13        24.5130   39.0188   40.2474 H           1 MOL       0.0799
@<TRIPOS>BOND
     1     1     2   1
     2     1     3   1
     3     1     4   1
     4     1     5   1
     5     2     6  ar
     6     2     7  ar
     7     3     8  am
     8     3     9   2
     9     4    10   1
    10     5    11   1
    11     6     8   1
    12     6    12  ar
    13     7    13  ar
    14    10    11   1
    15    12    14  ar
    16    13    14  ar
    17     4    15   1
    18     4    16   1
    19     5    17   1
    20     5    18   1
    21     7    19   1
    22     8    20   1
    23    10    21   1
    24    10    22   1
    25    11    23   1
    26    11    24   1
    27    12    25   1
    28    13    26   1
    29    14    27   1
@<TRIPOS>SUBSTRUCTURE
     1  MOL      1

