@<TRIPOS>MOLECULE
3udh_ligand_047
    27    29
SMALL
GAST_HUCK
****
This file was generated by PARSER (from files_GN.cpp)

@<TRIPOS>ATOM
      1 C1         28.3753   34.9036   40.5729 C.3         1 MOL       0.0781
      2 C2         28.9511   34.2593   41.7738 C.ar        1 MOL      -0.0219
      3 C3         28.5939   36.3005   40.9422 C.2         1 MOL       0.2144
      4 C4         29.0521   34.5134   39.2361 C.3         1 MOL      -0.0294
      5 C5         26.8905   34.5850   40.3066 C.3         1 MOL      -0.0531
      6 C6         29.4212   35.2430   42.6476 C.ar        1 MOL       0.0939
      7 C7         29.0760   32.8966   42.1146 C.ar        1 MOL      -0.0552
      8 N1         29.1861   36.4400   42.1073 N.am        1 MOL      -0.2200
      9 O1         28.2451   37.2692   40.2833 O.2         1 MOL      -0.3196
     10 C8         27.9577   34.7613   38.1747 C.3         1 MOL      -0.0449
     11 N2         26.6884   34.9687   38.9037 N.4         1 MOL       0.2177
     12 C9         30.0387   34.9110   43.8669 C.ar        1 MOL      -0.0098
     13 C10        29.7037   32.5470   43.3293 C.ar        1 MOL      -0.0486
     14 C11        30.1781   33.5492   44.2019 C.ar        1 MOL      -0.0475
     15 H1         29.3176   33.4500   39.2310 H           1 MOL       0.0183
     16 H2         29.9559   35.0974   39.0237 H           1 MOL       0.0183
     17 H3         26.2119   35.1334   40.9601 H           1 MOL       0.0667
     18 H4         26.6963   33.5141   40.4104 H           1 MOL       0.0667
     19 H5         28.7378   32.1699   41.4787 H           1 MOL       0.0771
     20 H6         29.4255   37.2906   42.5138 H           1 MOL       0.2404
     21 H7         27.8653   33.9101   37.4937 H           1 MOL       0.0802
     22 H8         28.1914   35.6561   37.5899 H           1 MOL       0.0802
     23 H9         26.4375   35.9662   38.8603 H           1 MOL       0.2001
     24 H10        25.9420   34.4056   38.4908 H           1 MOL       0.2001
     25 H11        30.3806   35.6430   44.4909 H           1 MOL       0.0591
     26 H12        29.8049   31.5616   43.5809 H           1 MOL       0.0588
     27 H13        30.6291   33.2872   45.0792 H           1 MOL       0.0799
@<TRIPOS>BOND
     1     1     2   1
     2     1     3   1
     3     1     4   1
     4     1     5   1
     5     2     6  ar
     6     2     7  ar
     7     3     8  am
     8     3     9   2
     9     4    10   1
    10     5    11   1
    11     6     8   1
    12     6    12  ar
    13     7    13  ar
    14    10    11   1
    15    12    14  ar
    16    13    14  ar
    17     4    15   1
    18     4    16   1
    19     5    17   1
    20     5    18   1
    21     7    19   1
    22     8    20   1
    23    10    21   1
    24    10    22   1
    25    11    23   1
    26    11    24   1
    27    12    25   1
    28    13    26   1
    29    14    27   1
@<TRIPOS>SUBSTRUCTURE
     1  MOL      1

