@<TRIPOS>MOLECULE
3udh_ligand_026
    27    29
SMALL
GAST_HUCK
****
This file was generated by PARSER (from files_GN.cpp)

@<TRIPOS>ATOM
      1 C1         33.3502   36.1388   46.9564 C.3         1 MOL       0.0781
      2 C2         32.0421   36.0518   47.6401 C.ar        1 MOL      -0.0219
      3 C3         34.2193   35.9077   48.1103 C.2         1 MOL       0.2144
      4 C4         33.5598   35.1159   45.8140 C.3         1 MOL      -0.0294
      5 C5         33.6156   37.4902   46.2519 C.3         1 MOL      -0.0531
      6 C6         32.2406   35.8004   48.9981 C.ar        1 MOL       0.0939
      7 C7         30.7333   36.1831   47.1337 C.ar        1 MOL      -0.0552
      8 N1         33.5520   35.7265   49.2280 N.am        1 MOL      -0.2200
      9 O1         35.4414   35.8828   48.0753 O.2         1 MOL      -0.3196
     10 C8         34.5990   35.7861   44.8887 C.3         1 MOL      -0.0449
     11 N2         34.6830   37.2037   45.2818 N.4         1 MOL       0.2177
     12 C9         31.1624   35.6765   49.8923 C.ar        1 MOL      -0.0098
     13 C10        29.6402   36.0629   48.0172 C.ar        1 MOL      -0.0486
     14 C11        29.8516   35.8122   49.3908 C.ar        1 MOL      -0.0475
     15 H1         32.6301   34.9678   45.2558 H           1 MOL       0.0183
     16 H2         33.9051   34.1420   46.1720 H           1 MOL       0.0183
     17 H3         33.9232   38.2793   46.9445 H           1 MOL       0.0667
     18 H4         32.7312   37.8285   45.7034 H           1 MOL       0.0667
     19 H5         30.5743   36.3708   46.1415 H           1 MOL       0.0771
     20 H6         33.9552   35.5590   50.0943 H           1 MOL       0.2404
     21 H7         34.3024   35.7041   43.8381 H           1 MOL       0.0802
     22 H8         35.5841   35.3274   45.0178 H           1 MOL       0.0802
     23 H9         35.5898   37.3703   45.7243 H           1 MOL       0.2001
     24 H10        34.5855   37.8103   44.4648 H           1 MOL       0.2001
     25 H11        31.3259   35.5057   50.8866 H           1 MOL       0.0591
     26 H12        28.6894   36.1715   47.6629 H           1 MOL       0.0588
     27 H13        29.0513   35.7318   50.0232 H           1 MOL       0.0799
@<TRIPOS>BOND
     1     1     2   1
     2     1     3   1
     3     1     4   1
     4     1     5   1
     5     2     6  ar
     6     2     7  ar
     7     3     8  am
     8     3     9   2
     9     4    10   1
    10     5    11   1
    11     6     8   1
    12     6    12  ar
    13     7    13  ar
    14    10    11   1
    15    12    14  ar
    16    13    14  ar
    17     4    15   1
    18     4    16   1
    19     5    17   1
    20     5    18   1
    21     7    19   1
    22     8    20   1
    23    10    21   1
    24    10    22   1
    25    11    23   1
    26    11    24   1
    27    12    25   1
    28    13    26   1
    29    14    27   1
@<TRIPOS>SUBSTRUCTURE
     1  MOL      1

