@<TRIPOS>MOLECULE
3udh_ligand_002
    27    29
SMALL
GAST_HUCK
****
This file was generated by PARSER (from files_GN.cpp)

@<TRIPOS>ATOM
      1 C1         17.1618   37.6201   44.8467 C.3         1 MOL       0.0781
      2 C2         16.7418   36.2423   44.5018 C.ar        1 MOL      -0.0219
      3 C3         17.4196   38.1115   43.4908 C.2         1 MOL       0.2144
      4 C4         16.1070   38.4457   45.6213 C.3         1 MOL      -0.0294
      5 C5         18.4053   37.6973   45.7727 C.3         1 MOL      -0.0531
      6 C6         16.7889   36.0698   43.1184 C.ar        1 MOL       0.0939
      7 C7         16.3676   35.1653   45.3310 C.ar        1 MOL      -0.0552
      8 N1         17.1983   37.2063   42.5610 N.am        1 MOL      -0.2200
      9 O1         17.8524   39.2228   43.2200 O.2         1 MOL      -0.3196
     10 C8         16.9401   39.5173   46.3468 C.3         1 MOL      -0.0449
     11 N2         18.2766   38.9399   46.5566 N.4         1 MOL       0.2177
     12 C9         16.4715   34.8419   42.5142 C.ar        1 MOL      -0.0098
     13 C10        16.0547   33.9213   44.7447 C.ar        1 MOL      -0.0486
     14 C11        16.1077   33.7604   43.3424 C.ar        1 MOL      -0.0475
     15 H1         15.6035   37.8225   46.3666 H           1 MOL       0.0183
     16 H2         15.3511   38.8982   44.9731 H           1 MOL       0.0183
     17 H3         19.3455   37.6894   45.2141 H           1 MOL       0.0667
     18 H4         18.4210   36.8620   46.4782 H           1 MOL       0.0667
     19 H5         16.3372   35.2775   46.3456 H           1 MOL       0.0771
     20 H6         17.3593   37.3247   41.6095 H           1 MOL       0.2404
     21 H7         16.4903   39.7909   47.3028 H           1 MOL       0.0802
     22 H8         17.0312   40.4134   45.7276 H           1 MOL       0.0802
     23 H9         18.9853   39.6210   46.2758 H           1 MOL       0.2001
     24 H10        18.3987   38.7260   47.5479 H           1 MOL       0.2001
     25 H11        16.5116   34.7338   41.4975 H           1 MOL       0.0591
     26 H12        15.7975   33.1296   45.3379 H           1 MOL       0.0588
     27 H13        15.8896   32.8520   42.9267 H           1 MOL       0.0799
@<TRIPOS>BOND
     1     1     2   1
     2     1     3   1
     3     1     4   1
     4     1     5   1
     5     2     6  ar
     6     2     7  ar
     7     3     8  am
     8     3     9   2
     9     4    10   1
    10     5    11   1
    11     6     8   1
    12     6    12  ar
    13     7    13  ar
    14    10    11   1
    15    12    14  ar
    16    13    14  ar
    17     4    15   1
    18     4    16   1
    19     5    17   1
    20     5    18   1
    21     7    19   1
    22     8    20   1
    23    10    21   1
    24    10    22   1
    25    11    23   1
    26    11    24   1
    27    12    25   1
    28    13    26   1
    29    14    27   1
@<TRIPOS>SUBSTRUCTURE
     1  MOL      1

