@<TRIPOS>MOLECULE
3udh_ligand_089
    27    29
SMALL
GAST_HUCK
****
This file was generated by PARSER (from files_GN.cpp)

@<TRIPOS>ATOM
      1 C1         24.6950   31.7530   44.3909 C.3         1 MOL       0.0781
      2 C2         23.9844   31.4474   45.6503 C.ar        1 MOL      -0.0219
      3 C3         25.9493   31.0545   44.6681 C.2         1 MOL       0.2144
      4 C4         23.9819   31.2491   43.1142 C.3         1 MOL      -0.0294
      5 C5         24.8782   33.2647   44.1124 C.3         1 MOL      -0.0531
      6 C6         24.8026   30.6717   46.4710 C.ar        1 MOL       0.0939
      7 C7         22.6935   31.8148   46.0822 C.ar        1 MOL      -0.0552
      8 N1         25.9602   30.4635   45.8426 N.am        1 MOL      -0.2200
      9 O1         26.9054   30.9962   43.9077 O.2         1 MOL      -0.3196
     10 C8         24.5283   32.1664   42.0036 C.3         1 MOL      -0.0449
     11 N2         25.0259   33.3921   42.6538 N.4         1 MOL       0.2177
     12 C9         24.3719   30.2367   47.7356 C.ar        1 MOL      -0.0098
     13 C10        22.2443   31.3860   47.3478 C.ar        1 MOL      -0.0486
     14 C11        23.0802   30.6010   48.1719 C.ar        1 MOL      -0.0475
     15 H1         22.9001   31.3896   43.1955 H           1 MOL       0.0183
     16 H2         24.1789   30.1938   42.9026 H           1 MOL       0.0183
     17 H3         25.7441   33.6900   44.6246 H           1 MOL       0.0667
     18 H4         23.9894   33.8259   44.4129 H           1 MOL       0.0667
     19 H5         22.0884   32.3853   45.4873 H           1 MOL       0.0771
     20 H6         26.6993   29.9448   46.1970 H           1 MOL       0.2404
     21 H7         23.7528   32.4112   41.2753 H           1 MOL       0.0802
     22 H8         25.3576   31.6798   41.4849 H           1 MOL       0.0802
     23 H9         26.0135   33.5184   42.4213 H           1 MOL       0.2001
     24 H10        24.4974   34.2033   42.3248 H           1 MOL       0.2001
     25 H11        24.9816   29.6686   48.3264 H           1 MOL       0.0591
     26 H12        21.3091   31.6453   47.6704 H           1 MOL       0.0588
     27 H13        22.7483   30.2962   49.0889 H           1 MOL       0.0799
@<TRIPOS>BOND
     1     1     2   1
     2     1     3   1
     3     1     4   1
     4     1     5   1
     5     2     6  ar
     6     2     7  ar
     7     3     8  am
     8     3     9   2
     9     4    10   1
    10     5    11   1
    11     6     8   1
    12     6    12  ar
    13     7    13  ar
    14    10    11   1
    15    12    14  ar
    16    13    14  ar
    17     4    15   1
    18     4    16   1
    19     5    17   1
    20     5    18   1
    21     7    19   1
    22     8    20   1
    23    10    21   1
    24    10    22   1
    25    11    23   1
    26    11    24   1
    27    12    25   1
    28    13    26   1
    29    14    27   1
@<TRIPOS>SUBSTRUCTURE
     1  MOL      1

