@<TRIPOS>MOLECULE
3udh_ligand_039
    27    29
SMALL
GAST_HUCK
****
This file was generated by PARSER (from files_GN.cpp)

@<TRIPOS>ATOM
      1 C1         34.6454   34.0970   44.9603 C.3         1 MOL       0.0781
      2 C2         33.2334   34.3825   45.3086 C.ar        1 MOL      -0.0219
      3 C3         34.9893   35.4007   44.4005 C.2         1 MOL       0.2144
      4 C4         35.5192   33.6765   46.1803 C.3         1 MOL      -0.0294
      5 C5         34.7969   32.9344   43.9374 C.3         1 MOL      -0.0531
      6 C6         32.9105   35.6899   44.9431 C.ar        1 MOL       0.0939
      7 C7         32.2581   33.5537   45.8975 C.ar        1 MOL      -0.0552
      8 N1         33.9903   36.2553   44.4074 N.am        1 MOL      -0.2200
      9 O1         36.0996   35.7002   43.9874 O.2         1 MOL      -0.3196
     10 C8         36.1981   32.3674   45.7386 C.3         1 MOL      -0.0449
     11 N2         35.3001   31.8033   44.7249 N.4         1 MOL       0.2177
     12 C9         31.6239   36.2172   45.1513 C.ar        1 MOL      -0.0098
     13 C10        30.9619   34.0661   46.1148 C.ar        1 MOL      -0.0486
     14 C11        30.6455   35.3913   45.7421 C.ar        1 MOL      -0.0475
     15 H1         34.9089   33.4815   47.0671 H           1 MOL       0.0183
     16 H2         36.2735   34.4224   46.4476 H           1 MOL       0.0183
     17 H3         35.5329   33.1644   43.1599 H           1 MOL       0.0667
     18 H4         33.8574   32.6645   43.4488 H           1 MOL       0.0667
     19 H5         32.4847   32.5931   46.1626 H           1 MOL       0.0771
     20 H6         34.0312   37.1686   44.0814 H           1 MOL       0.2404
     21 H7         36.3234   31.6726   46.5716 H           1 MOL       0.0802
     22 H8         37.1760   32.5711   45.2922 H           1 MOL       0.0802
     23 H9         35.7939   31.1335   44.1309 H           1 MOL       0.2001
     24 H10        34.5153   31.3413   45.1900 H           1 MOL       0.2001
     25 H11        31.4024   37.1771   44.8763 H           1 MOL       0.0591
     26 H12        30.2490   33.4723   46.5422 H           1 MOL       0.0588
     27 H13        29.7012   35.7516   45.8988 H           1 MOL       0.0799
@<TRIPOS>BOND
     1     1     2   1
     2     1     3   1
     3     1     4   1
     4     1     5   1
     5     2     6  ar
     6     2     7  ar
     7     3     8  am
     8     3     9   2
     9     4    10   1
    10     5    11   1
    11     6     8   1
    12     6    12  ar
    13     7    13  ar
    14    10    11   1
    15    12    14  ar
    16    13    14  ar
    17     4    15   1
    18     4    16   1
    19     5    17   1
    20     5    18   1
    21     7    19   1
    22     8    20   1
    23    10    21   1
    24    10    22   1
    25    11    23   1
    26    11    24   1
    27    12    25   1
    28    13    26   1
    29    14    27   1
@<TRIPOS>SUBSTRUCTURE
     1  MOL      1

