@<TRIPOS>MOLECULE
3udh_ligand_004
    27    29
SMALL
GAST_HUCK
****
This file was generated by PARSER (from files_GN.cpp)

@<TRIPOS>ATOM
      1 C1         18.2285   37.4564   43.7684 C.3         1 MOL       0.0781
      2 C2         17.5039   38.7171   43.4759 C.ar        1 MOL      -0.0219
      3 C3         18.8376   37.8460   45.0400 C.2         1 MOL       0.2144
      4 C4         17.2913   36.2173   43.8624 C.3         1 MOL      -0.0294
      5 C5         19.2703   37.0935   42.6714 C.3         1 MOL      -0.0531
      6 C6         17.7547   39.6447   44.4857 C.ar        1 MOL       0.0939
      7 C7         16.6691   39.0628   42.3919 C.ar        1 MOL      -0.0552
      8 N1         18.5554   39.0834   45.3903 N.am        1 MOL      -0.2200
      9 O1         19.5445   37.1204   45.7280 O.2         1 MOL      -0.3196
     10 C8         17.8832   35.1989   42.8706 C.3         1 MOL      -0.0449
     11 N2         18.6644   35.9912   41.9131 N.4         1 MOL       0.2177
     12 C9         17.1987   40.9332   44.4557 C.ar        1 MOL      -0.0098
     13 C10        16.0982   40.3519   42.3484 C.ar        1 MOL      -0.0486
     14 C11        16.3636   41.2842   43.3754 C.ar        1 MOL      -0.0475
     15 H1         16.2675   36.4544   43.5633 H           1 MOL       0.0183
     16 H2         17.2533   35.7874   44.8664 H           1 MOL       0.0183
     17 H3         20.2077   36.7347   43.1073 H           1 MOL       0.0667
     18 H4         19.5030   37.9261   42.0022 H           1 MOL       0.0667
     19 H5         16.4765   38.3882   41.6483 H           1 MOL       0.0771
     20 H6         18.8908   39.5387   46.1786 H           1 MOL       0.2404
     21 H7         17.1023   34.6343   42.3562 H           1 MOL       0.0802
     22 H8         18.5468   34.4997   43.3894 H           1 MOL       0.0802
     23 H9         19.3840   35.4143   41.4704 H           1 MOL       0.2001
     24 H10        18.0420   36.3752   41.1956 H           1 MOL       0.2001
     25 H11        17.3952   41.6011   45.2033 H           1 MOL       0.0591
     26 H12        15.4903   40.6141   41.5672 H           1 MOL       0.0588
     27 H13        15.9475   42.2183   43.3371 H           1 MOL       0.0799
@<TRIPOS>BOND
     1     1     2   1
     2     1     3   1
     3     1     4   1
     4     1     5   1
     5     2     6  ar
     6     2     7  ar
     7     3     8  am
     8     3     9   2
     9     4    10   1
    10     5    11   1
    11     6     8   1
    12     6    12  ar
    13     7    13  ar
    14    10    11   1
    15    12    14  ar
    16    13    14  ar
    17     4    15   1
    18     4    16   1
    19     5    17   1
    20     5    18   1
    21     7    19   1
    22     8    20   1
    23    10    21   1
    24    10    22   1
    25    11    23   1
    26    11    24   1
    27    12    25   1
    28    13    26   1
    29    14    27   1
@<TRIPOS>SUBSTRUCTURE
     1  MOL      1

