@<TRIPOS>MOLECULE
3udh_ligand_035
    27    29
SMALL
GAST_HUCK
****
This file was generated by PARSER (from files_GN.cpp)

@<TRIPOS>ATOM
      1 C1         16.7344   35.9967   46.1208 C.3         1 MOL       0.0781
      2 C2         16.8817   37.4084   46.5480 C.ar        1 MOL      -0.0219
      3 C3         17.5443   35.3721   47.1596 C.2         1 MOL       0.2144
      4 C4         15.2579   35.5021   46.0919 C.3         1 MOL      -0.0294
      5 C5         17.2797   35.7349   44.6881 C.3         1 MOL      -0.0531
      6 C6         17.6994   37.4753   47.6752 C.ar        1 MOL       0.0939
      7 C7         16.3567   38.5910   45.9871 C.ar        1 MOL      -0.0552
      8 N1         18.0602   36.2370   48.0026 N.am        1 MOL      -0.2200
      9 O1         17.7279   34.1675   47.2602 O.2         1 MOL      -0.3196
     10 C8         15.0847   34.8916   44.6903 C.3         1 MOL      -0.0449
     11 N2         16.0813   35.5732   43.8614 N.4         1 MOL       0.2177
     12 C9         18.0254   38.7004   48.2795 C.ar        1 MOL      -0.0098
     13 C10        16.6701   39.8309   46.5823 C.ar        1 MOL      -0.0486
     14 C11        17.5002   39.8851   47.7236 C.ar        1 MOL      -0.0475
     15 H1         14.5519   36.3294   46.2148 H           1 MOL       0.0183
     16 H2         15.0414   34.7557   46.8630 H           1 MOL       0.0183
     17 H3         17.8627   34.8105   44.6320 H           1 MOL       0.0667
     18 H4         17.8933   36.5522   44.3016 H           1 MOL       0.0667
     19 H5         15.7574   38.5518   45.1598 H           1 MOL       0.0771
     20 H6         18.6409   35.9994   48.7382 H           1 MOL       0.2404
     21 H7         14.0813   35.0674   44.2981 H           1 MOL       0.0802
     22 H8         15.2829   33.8156   44.7077 H           1 MOL       0.0802
     23 H9         16.2825   35.0407   43.0117 H           1 MOL       0.2001
     24 H10        15.7147   36.4941   43.6201 H           1 MOL       0.2001
     25 H11        18.6311   38.7301   49.1021 H           1 MOL       0.0591
     26 H12        16.2963   40.6956   46.1840 H           1 MOL       0.0588
     27 H13        17.7239   40.7875   48.1485 H           1 MOL       0.0799
@<TRIPOS>BOND
     1     1     2   1
     2     1     3   1
     3     1     4   1
     4     1     5   1
     5     2     6  ar
     6     2     7  ar
     7     3     8  am
     8     3     9   2
     9     4    10   1
    10     5    11   1
    11     6     8   1
    12     6    12  ar
    13     7    13  ar
    14    10    11   1
    15    12    14  ar
    16    13    14  ar
    17     4    15   1
    18     4    16   1
    19     5    17   1
    20     5    18   1
    21     7    19   1
    22     8    20   1
    23    10    21   1
    24    10    22   1
    25    11    23   1
    26    11    24   1
    27    12    25   1
    28    13    26   1
    29    14    27   1
@<TRIPOS>SUBSTRUCTURE
     1  MOL      1

