@<TRIPOS>MOLECULE
3udh_ligand_036
    27    29
SMALL
GAST_HUCK
****
This file was generated by PARSER (from files_GN.cpp)

@<TRIPOS>ATOM
      1 C1         17.8783   34.6672   43.6290 C.3         1 MOL       0.0781
      2 C2         17.4316   36.0753   43.7249 C.ar        1 MOL      -0.0219
      3 C3         17.6696   34.2789   45.0260 C.2         1 MOL       0.2144
      4 C4         17.0742   33.8077   42.6254 C.3         1 MOL      -0.0294
      5 C5         19.3411   34.4842   43.1440 C.3         1 MOL      -0.0531
      6 C6         17.0486   36.3577   45.0360 C.ar        1 MOL       0.0939
      7 C7         17.3579   37.0811   42.7392 C.ar        1 MOL      -0.0552
      8 N1         17.2065   35.2579   45.7706 N.am        1 MOL      -0.2200
      9 O1         17.8971   33.1738   45.4969 O.2         1 MOL      -0.3196
     10 C8         18.0366   32.6539   42.2901 C.3         1 MOL      -0.0449
     11 N2         19.4009   33.1818   42.4552 N.4         1 MOL       0.2177
     12 C9         16.5905   37.6318   45.4127 C.ar        1 MOL      -0.0098
     13 C10        16.9022   38.3666   43.0989 C.ar        1 MOL      -0.0486
     14 C11        16.5218   38.6413   44.4307 C.ar        1 MOL      -0.0475
     15 H1         16.8636   34.3734   41.7124 H           1 MOL       0.0183
     16 H2         16.1281   33.4410   43.0345 H           1 MOL       0.0183
     17 H3         20.0636   34.5141   43.9637 H           1 MOL       0.0667
     18 H4         19.6133   35.2555   42.4190 H           1 MOL       0.0667
     19 H5         17.6356   36.8847   41.7763 H           1 MOL       0.0771
     20 H6         17.0109   35.1911   46.7188 H           1 MOL       0.2404
     21 H7         17.8905   32.2911   41.2704 H           1 MOL       0.0802
     22 H8         17.8900   31.8245   42.9859 H           1 MOL       0.0802
     23 H9         19.9568   32.5232   43.0056 H           1 MOL       0.2001
     24 H10        19.8314   33.2988   41.5333 H           1 MOL       0.2001
     25 H11        16.3160   37.8223   46.3786 H           1 MOL       0.0591
     26 H12        16.8481   39.1030   42.3917 H           1 MOL       0.0588
     27 H13        16.1928   39.5754   44.6840 H           1 MOL       0.0799
@<TRIPOS>BOND
     1     1     2   1
     2     1     3   1
     3     1     4   1
     4     1     5   1
     5     2     6  ar
     6     2     7  ar
     7     3     8  am
     8     3     9   2
     9     4    10   1
    10     5    11   1
    11     6     8   1
    12     6    12  ar
    13     7    13  ar
    14    10    11   1
    15    12    14  ar
    16    13    14  ar
    17     4    15   1
    18     4    16   1
    19     5    17   1
    20     5    18   1
    21     7    19   1
    22     8    20   1
    23    10    21   1
    24    10    22   1
    25    11    23   1
    26    11    24   1
    27    12    25   1
    28    13    26   1
    29    14    27   1
@<TRIPOS>SUBSTRUCTURE
     1  MOL      1

