@<TRIPOS>MOLECULE
3udh_ligand_037
    27    29
SMALL
GAST_HUCK
****
This file was generated by PARSER (from files_GN.cpp)

@<TRIPOS>ATOM
      1 C1         18.8979   35.2516   42.1198 C.3         1 MOL       0.0781
      2 C2         18.3604   36.6278   42.1102 C.ar        1 MOL      -0.0219
      3 C3         20.1746   35.5068   41.4508 C.2         1 MOL       0.2144
      4 C4         19.0606   34.5877   43.5064 C.3         1 MOL      -0.0294
      5 C5         18.0034   34.2330   41.3763 C.3         1 MOL      -0.0531
      6 C6         19.2598   37.4722   41.4585 C.ar        1 MOL       0.0939
      7 C7         17.1402   37.1379   42.5979 C.ar        1 MOL      -0.0552
      8 N1         20.3175   36.7581   41.0760 N.am        1 MOL      -0.2200
      9 O1         21.0471   34.6728   41.2547 O.2         1 MOL      -0.3196
     10 C8         19.0673   33.0773   43.1806 C.3         1 MOL      -0.0449
     11 N2         18.4654   32.9182   41.8420 N.4         1 MOL       0.2177
     12 C9         18.9923   38.8410   41.2884 C.ar        1 MOL      -0.0098
     13 C10        16.8528   38.5088   42.4301 C.ar        1 MOL      -0.0486
     14 C11        17.7778   39.3578   41.7838 C.ar        1 MOL      -0.0475
     15 H1         18.2027   34.8187   44.1449 H           1 MOL       0.0183
     16 H2         19.9730   34.8980   44.0241 H           1 MOL       0.0183
     17 H3         18.0826   34.3136   40.2889 H           1 MOL       0.0667
     18 H4         16.9536   34.3495   41.6603 H           1 MOL       0.0667
     19 H5         16.4685   36.5233   43.0616 H           1 MOL       0.0771
     20 H6         21.0911   37.1159   40.6119 H           1 MOL       0.2404
     21 H7         18.5022   32.5094   43.9230 H           1 MOL       0.0802
     22 H8         20.0915   32.6982   43.1522 H           1 MOL       0.0802
     23 H9         19.1724   32.5872   41.1827 H           1 MOL       0.2001
     24 H10        17.6873   32.2561   41.8721 H           1 MOL       0.2001
     25 H11        19.6627   39.4474   40.8122 H           1 MOL       0.0591
     26 H12        15.9700   38.8899   42.7764 H           1 MOL       0.0588
     27 H13        17.5647   40.3514   41.6726 H           1 MOL       0.0799
@<TRIPOS>BOND
     1     1     2   1
     2     1     3   1
     3     1     4   1
     4     1     5   1
     5     2     6  ar
     6     2     7  ar
     7     3     8  am
     8     3     9   2
     9     4    10   1
    10     5    11   1
    11     6     8   1
    12     6    12  ar
    13     7    13  ar
    14    10    11   1
    15    12    14  ar
    16    13    14  ar
    17     4    15   1
    18     4    16   1
    19     5    17   1
    20     5    18   1
    21     7    19   1
    22     8    20   1
    23    10    21   1
    24    10    22   1
    25    11    23   1
    26    11    24   1
    27    12    25   1
    28    13    26   1
    29    14    27   1
@<TRIPOS>SUBSTRUCTURE
     1  MOL      1

