@<TRIPOS>MOLECULE
3udh_ligand_049
    27    29
SMALL
GAST_HUCK
****
This file was generated by PARSER (from files_GN.cpp)

@<TRIPOS>ATOM
      1 C1         24.6855   29.2639   46.3508 C.3         1 MOL       0.0781
      2 C2         23.6053   30.2759   46.2283 C.ar        1 MOL      -0.0219
      3 C3         24.6383   29.0806   47.7969 C.2         1 MOL       0.2144
      4 C4         24.4165   27.9620   45.5374 C.3         1 MOL      -0.0294
      5 C5         26.0630   29.7760   45.8371 C.3         1 MOL      -0.0531
      6 C6         23.0990   30.5770   47.4943 C.ar        1 MOL       0.0939
      7 C7         23.0939   30.9310   45.0930 C.ar        1 MOL      -0.0552
      8 N1         23.7423   29.8370   48.3954 N.am        1 MOL      -0.2200
      9 O1         25.3527   28.3119   48.4298 O.2         1 MOL      -0.3196
     10 C8         25.6874   27.7467   44.6982 C.3         1 MOL      -0.0449
     11 N2         26.2642   29.0896   44.5530 N.4         1 MOL       0.2177
     12 C9         22.0805   31.5322   47.6735 C.ar        1 MOL      -0.0098
     13 C10        22.0677   31.8880   45.2516 C.ar        1 MOL      -0.0486
     14 C11        21.5655   32.1893   46.5374 C.ar        1 MOL      -0.0475
     15 H1         23.5720   28.0824   44.8571 H           1 MOL       0.0183
     16 H2         24.2200   27.0920   46.1654 H           1 MOL       0.0183
     17 H3         26.8814   29.4950   46.5078 H           1 MOL       0.0667
     18 H4         26.0947   30.8594   45.6937 H           1 MOL       0.0667
     19 H5         23.4675   30.7277   44.1612 H           1 MOL       0.0771
     20 H6         23.5778   29.8593   49.3500 H           1 MOL       0.2404
     21 H7         25.4590   27.3149   43.7213 H           1 MOL       0.0802
     22 H8         26.3861   27.0938   45.2269 H           1 MOL       0.0802
     23 H9         27.2572   29.0346   44.3199 H           1 MOL       0.2001
     24 H10        25.7589   29.5965   43.8224 H           1 MOL       0.2001
     25 H11        21.7229   31.7457   48.6065 H           1 MOL       0.0591
     26 H12        21.6975   32.3765   44.4340 H           1 MOL       0.0588
     27 H13        20.8280   32.8904   46.6483 H           1 MOL       0.0799
@<TRIPOS>BOND
     1     1     2   1
     2     1     3   1
     3     1     4   1
     4     1     5   1
     5     2     6  ar
     6     2     7  ar
     7     3     8  am
     8     3     9   2
     9     4    10   1
    10     5    11   1
    11     6     8   1
    12     6    12  ar
    13     7    13  ar
    14    10    11   1
    15    12    14  ar
    16    13    14  ar
    17     4    15   1
    18     4    16   1
    19     5    17   1
    20     5    18   1
    21     7    19   1
    22     8    20   1
    23    10    21   1
    24    10    22   1
    25    11    23   1
    26    11    24   1
    27    12    25   1
    28    13    26   1
    29    14    27   1
@<TRIPOS>SUBSTRUCTURE
     1  MOL      1

