@<TRIPOS>MOLECULE
3udh_ligand_060
    27    29
SMALL
GAST_HUCK
****
This file was generated by PARSER (from files_GN.cpp)

@<TRIPOS>ATOM
      1 C1         21.7190   33.4591   45.2980 C.3         1 MOL       0.0781
      2 C2         22.1857   32.7246   46.4953 C.ar        1 MOL      -0.0219
      3 C3         23.0209   33.7800   44.7129 C.2         1 MOL       0.2144
      4 C4         20.8045   32.6465   44.3499 C.3         1 MOL      -0.0294
      5 C5         20.8571   34.7090   45.5973 C.3         1 MOL      -0.0531
      6 C6         23.5805   32.6818   46.4976 C.ar        1 MOL       0.0939
      7 C7         21.4613   32.1149   47.5408 C.ar        1 MOL      -0.0552
      8 N1         24.0295   33.3200   45.4181 N.am        1 MOL      -0.2200
      9 O1         23.1902   34.4082   43.6782 O.2         1 MOL      -0.3196
     10 C8         20.0453   33.7309   43.5580 C.3         1 MOL      -0.0449
     11 N2         20.1144   34.9731   44.3526 N.4         1 MOL       0.2177
     12 C9         24.2982   32.0435   47.5240 C.ar        1 MOL      -0.0098
     13 C10        22.1656   31.4810   48.5857 C.ar        1 MOL      -0.0486
     14 C11        23.5768   31.4414   48.5747 C.ar        1 MOL      -0.0475
     15 H1         20.0838   32.0554   44.9257 H           1 MOL       0.0183
     16 H2         21.3619   31.9731   43.6901 H           1 MOL       0.0183
     17 H3         21.4572   35.5787   45.8808 H           1 MOL       0.0667
     18 H4         20.1351   34.5062   46.3952 H           1 MOL       0.0667
     19 H5         20.4392   32.1372   47.5485 H           1 MOL       0.0771
     20 H6         24.9648   33.4323   45.1863 H           1 MOL       0.2404
     21 H7         19.0032   33.4438   43.3941 H           1 MOL       0.0802
     22 H8         20.5246   33.9011   42.5909 H           1 MOL       0.0802
     23 H9         20.6092   35.6886   43.8127 H           1 MOL       0.2001
     24 H10        19.1718   35.3053   44.5744 H           1 MOL       0.2001
     25 H11        25.3189   32.0260   47.5135 H           1 MOL       0.0591
     26 H12        21.6515   31.0503   49.3571 H           1 MOL       0.0588
     27 H13        24.0791   30.9729   49.3331 H           1 MOL       0.0799
@<TRIPOS>BOND
     1     1     2   1
     2     1     3   1
     3     1     4   1
     4     1     5   1
     5     2     6  ar
     6     2     7  ar
     7     3     8  am
     8     3     9   2
     9     4    10   1
    10     5    11   1
    11     6     8   1
    12     6    12  ar
    13     7    13  ar
    14    10    11   1
    15    12    14  ar
    16    13    14  ar
    17     4    15   1
    18     4    16   1
    19     5    17   1
    20     5    18   1
    21     7    19   1
    22     8    20   1
    23    10    21   1
    24    10    22   1
    25    11    23   1
    26    11    24   1
    27    12    25   1
    28    13    26   1
    29    14    27   1
@<TRIPOS>SUBSTRUCTURE
     1  MOL      1

