@<TRIPOS>MOLECULE
3udh_ligand_010
    27    29
SMALL
GAST_HUCK
****
This file was generated by PARSER (from files_GN.cpp)

@<TRIPOS>ATOM
      1 C1         21.3984   32.7406   45.8692 C.3         1 MOL       0.0781
      2 C2         22.4558   32.2567   46.7893 C.ar        1 MOL      -0.0219
      3 C3         20.2470   32.5547   46.7486 C.2         1 MOL       0.2144
      4 C4         21.6040   34.2110   45.3981 C.3         1 MOL      -0.0294
      5 C5         21.3109   31.9059   44.5590 C.3         1 MOL      -0.0531
      6 C6         21.8805   31.8508   47.9928 C.ar        1 MOL       0.0939
      7 C7         23.8497   32.1474   46.6034 C.ar        1 MOL      -0.0552
      8 N1         20.5654   32.0440   47.9178 N.am        1 MOL      -0.2200
      9 O1         19.0888   32.8225   46.4562 O.2         1 MOL      -0.3196
     10 C8         21.5067   34.1432   43.8629 C.3         1 MOL      -0.0449
     11 N2         21.8930   32.7675   43.5236 N.4         1 MOL       0.2177
     12 C9         22.6556   31.3326   49.0444 C.ar        1 MOL      -0.0098
     13 C10        24.6440   31.6255   47.6458 C.ar        1 MOL      -0.0486
     14 C11        24.0496   31.2199   48.8611 C.ar        1 MOL      -0.0475
     15 H1         22.5913   34.5900   45.6767 H           1 MOL       0.0183
     16 H2         20.8542   34.8993   45.7994 H           1 MOL       0.0183
     17 H3         20.2747   31.6906   44.2812 H           1 MOL       0.0667
     18 H4         21.8545   30.9588   44.6118 H           1 MOL       0.0667
     19 H5         24.2804   32.4397   45.7239 H           1 MOL       0.0771
     20 H6         19.9347   31.8402   48.6255 H           1 MOL       0.2404
     21 H7         22.1749   34.8604   43.3814 H           1 MOL       0.0802
     22 H8         20.4807   34.3313   43.5326 H           1 MOL       0.0802
     23 H9         21.5550   32.5025   42.5950 H           1 MOL       0.2001
     24 H10        22.9116   32.6892   43.5537 H           1 MOL       0.2001
     25 H11        22.2176   31.0432   49.9211 H           1 MOL       0.0591
     26 H12        25.6553   31.5392   47.5200 H           1 MOL       0.0588
     27 H13        24.6318   30.8416   49.6116 H           1 MOL       0.0799
@<TRIPOS>BOND
     1     1     2   1
     2     1     3   1
     3     1     4   1
     4     1     5   1
     5     2     6  ar
     6     2     7  ar
     7     3     8  am
     8     3     9   2
     9     4    10   1
    10     5    11   1
    11     6     8   1
    12     6    12  ar
    13     7    13  ar
    14    10    11   1
    15    12    14  ar
    16    13    14  ar
    17     4    15   1
    18     4    16   1
    19     5    17   1
    20     5    18   1
    21     7    19   1
    22     8    20   1
    23    10    21   1
    24    10    22   1
    25    11    23   1
    26    11    24   1
    27    12    25   1
    28    13    26   1
    29    14    27   1
@<TRIPOS>SUBSTRUCTURE
     1  MOL      1

