@<TRIPOS>MOLECULE
3udh_ligand_013
    27    29
SMALL
GAST_HUCK
****
This file was generated by PARSER (from files_GN.cpp)

@<TRIPOS>ATOM
      1 C1         27.7659   35.2044   41.5661 C.3         1 MOL       0.0781
      2 C2         28.1714   33.9392   40.9085 C.ar        1 MOL      -0.0219
      3 C3         27.8586   36.0867   40.4040 C.2         1 MOL       0.2144
      4 C4         26.3486   35.1467   42.2109 C.3         1 MOL      -0.0294
      5 C5         28.7169   35.6126   42.7268 C.3         1 MOL      -0.0531
      6 C6         28.4467   34.1780   39.5627 C.ar        1 MOL       0.0939
      7 C7         28.3184   32.6405   41.4385 C.ar        1 MOL      -0.0552
      8 N1         28.2432   35.4686   39.3099 N.am        1 MOL      -0.2200
      9 O1         27.6036   37.2823   40.4133 O.2         1 MOL      -0.3196
     10 C8         26.5575   35.6356   43.6555 C.3         1 MOL      -0.0449
     11 N2         27.9622   35.3371   43.9555 N.4         1 MOL       0.2177
     12 C9         28.8697   33.1507   38.7040 C.ar        1 MOL      -0.0098
     13 C10        28.7453   31.5966   40.5907 C.ar        1 MOL      -0.0486
     14 C11        29.0219   31.8511   39.2291 C.ar        1 MOL      -0.0475
     15 H1         25.9556   34.1259   42.2318 H           1 MOL       0.0183
     16 H2         25.6175   35.7796   41.6984 H           1 MOL       0.0183
     17 H3         28.9496   36.6814   42.7021 H           1 MOL       0.0667
     18 H4         29.6587   35.0588   42.7303 H           1 MOL       0.0667
     19 H5         28.1199   32.4571   42.4242 H           1 MOL       0.0771
     20 H6         28.3613   35.8899   38.4437 H           1 MOL       0.2404
     21 H7         25.8957   35.1237   44.3573 H           1 MOL       0.0802
     22 H8         26.3893   36.7144   43.7270 H           1 MOL       0.0802
     23 H9         28.3020   35.9176   44.7259 H           1 MOL       0.2001
     24 H10        28.0500   34.3484   44.2069 H           1 MOL       0.2001
     25 H11        29.0623   33.3442   37.7198 H           1 MOL       0.0591
     26 H12        28.8566   30.6512   40.9643 H           1 MOL       0.0588
     27 H13        29.3332   31.0907   38.6210 H           1 MOL       0.0799
@<TRIPOS>BOND
     1     1     2   1
     2     1     3   1
     3     1     4   1
     4     1     5   1
     5     2     6  ar
     6     2     7  ar
     7     3     8  am
     8     3     9   2
     9     4    10   1
    10     5    11   1
    11     6     8   1
    12     6    12  ar
    13     7    13  ar
    14    10    11   1
    15    12    14  ar
    16    13    14  ar
    17     4    15   1
    18     4    16   1
    19     5    17   1
    20     5    18   1
    21     7    19   1
    22     8    20   1
    23    10    21   1
    24    10    22   1
    25    11    23   1
    26    11    24   1
    27    12    25   1
    28    13    26   1
    29    14    27   1
@<TRIPOS>SUBSTRUCTURE
     1  MOL      1

