@<TRIPOS>MOLECULE
3udh_ligand_087
    27    29
SMALL
GAST_HUCK
****
This file was generated by PARSER (from files_GN.cpp)

@<TRIPOS>ATOM
      1 C1         27.1828   35.1705   41.1424 C.3         1 MOL       0.0781
      2 C2         26.3912   36.4199   41.1136 C.ar        1 MOL      -0.0219
      3 C3         26.8410   34.6688   39.8139 C.2         1 MOL       0.2144
      4 C4         28.7062   35.4127   41.3487 C.3         1 MOL      -0.0294
      5 C5         26.7656   34.2190   42.2989 C.3         1 MOL      -0.0531
      6 C6         25.7146   36.5207   39.8990 C.ar        1 MOL       0.0939
      7 C7         26.2489   37.4257   42.0900 C.ar        1 MOL      -0.0552
      8 N1         26.0155   35.4543   39.1592 N.am        1 MOL      -0.2200
      9 O1         27.2735   33.6335   39.3276 O.2         1 MOL      -0.3196
     10 C8         29.0845   34.5050   42.5333 C.3         1 MOL      -0.0449
     11 N2         27.8377   34.3555   43.2926 N.4         1 MOL       0.2177
     12 C9         24.8810   37.6147   39.6122 C.ar        1 MOL      -0.0098
     13 C10        25.4202   38.5323   41.8167 C.ar        1 MOL      -0.0486
     14 C11        24.7376   38.6269   40.5844 C.ar        1 MOL      -0.0475
     15 H1         28.9258   36.4524   41.6108 H           1 MOL       0.0183
     16 H2         29.2970   35.1574   40.4655 H           1 MOL       0.0183
     17 H3         26.7234   33.1757   41.9724 H           1 MOL       0.0667
     18 H4         25.8028   34.4787   42.7456 H           1 MOL       0.0667
     19 H5         26.7406   37.3567   42.9830 H           1 MOL       0.0771
     20 H6         25.6737   35.2803   38.2680 H           1 MOL       0.2404
     21 H7         29.8658   34.9485   43.1545 H           1 MOL       0.0802
     22 H8         29.4218   33.5262   42.1787 H           1 MOL       0.0802
     23 H9         27.8768   33.5484   43.9170 H           1 MOL       0.2001
     24 H10        27.6785   35.2013   43.8451 H           1 MOL       0.2001
     25 H11        24.3938   37.6747   38.7164 H           1 MOL       0.0591
     26 H12        25.3167   39.2691   42.5154 H           1 MOL       0.0588
     27 H13        24.1380   39.4333   40.3976 H           1 MOL       0.0799
@<TRIPOS>BOND
     1     1     2   1
     2     1     3   1
     3     1     4   1
     4     1     5   1
     5     2     6  ar
     6     2     7  ar
     7     3     8  am
     8     3     9   2
     9     4    10   1
    10     5    11   1
    11     6     8   1
    12     6    12  ar
    13     7    13  ar
    14    10    11   1
    15    12    14  ar
    16    13    14  ar
    17     4    15   1
    18     4    16   1
    19     5    17   1
    20     5    18   1
    21     7    19   1
    22     8    20   1
    23    10    21   1
    24    10    22   1
    25    11    23   1
    26    11    24   1
    27    12    25   1
    28    13    26   1
    29    14    27   1
@<TRIPOS>SUBSTRUCTURE
     1  MOL      1

