@<TRIPOS>MOLECULE
3udh_ligand_078
    27    29
SMALL
GAST_HUCK
****
This file was generated by PARSER (from files_GN.cpp)

@<TRIPOS>ATOM
      1 C1         27.2034   35.6436   40.6184 C.3         1 MOL       0.0781
      2 C2         27.6229   34.5131   39.7534 C.ar        1 MOL      -0.0219
      3 C3         28.0356   35.3380   41.7807 C.2         1 MOL       0.2144
      4 C4         27.4747   37.0428   39.9902 C.3         1 MOL      -0.0294
      5 C5         25.6801   35.6363   40.9339 C.3         1 MOL      -0.0531
      6 C6         28.5566   33.7255   40.4271 C.ar        1 MOL       0.0939
      7 C7         27.2097   34.1569   38.4535 C.ar        1 MOL      -0.0552
      8 N1         28.7687   34.2583   41.6285 N.am        1 MOL      -0.2200
      9 O1         28.0757   36.0048   42.8045 O.2         1 MOL      -0.3196
     10 C8         26.1264   37.7810   40.0818 C.3         1 MOL      -0.0449
     11 N2         25.1127   36.7198   40.1214 N.4         1 MOL       0.2177
     12 C9         29.1085   32.5728   39.8408 C.ar        1 MOL      -0.0098
     13 C10        27.7502   33.0017   37.8506 C.ar        1 MOL      -0.0486
     14 C11        28.6974   32.2132   38.5424 C.ar        1 MOL      -0.0475
     15 H1         27.7677   36.9626   38.9398 H           1 MOL       0.0183
     16 H2         28.2515   37.6077   40.5145 H           1 MOL       0.0183
     17 H3         25.4816   35.8613   41.9863 H           1 MOL       0.0667
     18 H4         25.1941   34.6881   40.6918 H           1 MOL       0.0667
     19 H5         26.5169   34.7204   37.9563 H           1 MOL       0.0771
     20 H6         29.3808   33.9021   42.2931 H           1 MOL       0.2404
     21 H7         25.9633   38.4410   39.2274 H           1 MOL       0.0802
     22 H8         26.0733   38.3701   41.0024 H           1 MOL       0.0802
     23 H9         24.2422   37.0643   40.5322 H           1 MOL       0.2001
     24 H10        24.9314   36.3813   39.1725 H           1 MOL       0.2001
     25 H11        29.7874   32.0032   40.3508 H           1 MOL       0.0591
     26 H12        27.4465   32.7285   36.9141 H           1 MOL       0.0588
     27 H13        29.0804   31.3725   38.1019 H           1 MOL       0.0799
@<TRIPOS>BOND
     1     1     2   1
     2     1     3   1
     3     1     4   1
     4     1     5   1
     5     2     6  ar
     6     2     7  ar
     7     3     8  am
     8     3     9   2
     9     4    10   1
    10     5    11   1
    11     6     8   1
    12     6    12  ar
    13     7    13  ar
    14    10    11   1
    15    12    14  ar
    16    13    14  ar
    17     4    15   1
    18     4    16   1
    19     5    17   1
    20     5    18   1
    21     7    19   1
    22     8    20   1
    23    10    21   1
    24    10    22   1
    25    11    23   1
    26    11    24   1
    27    12    25   1
    28    13    26   1
    29    14    27   1
@<TRIPOS>SUBSTRUCTURE
     1  MOL      1

