@<TRIPOS>MOLECULE
3udh_ligand_034
    27    29
SMALL
GAST_HUCK
****
This file was generated by PARSER (from files_GN.cpp)

@<TRIPOS>ATOM
      1 C1         17.4145   33.3987   43.8332 C.3         1 MOL       0.0781
      2 C2         17.2740   34.3104   44.9880 C.ar        1 MOL      -0.0219
      3 C3         16.2375   32.5657   44.0824 C.2         1 MOL       0.2144
      4 C4         17.4005   34.1551   42.4711 C.3         1 MOL      -0.0294
      5 C5         18.7488   32.5951   43.8343 C.3         1 MOL      -0.0531
      6 C6         16.1333   33.9847   45.7183 C.ar        1 MOL       0.0939
      7 C7         18.0998   35.3794   45.3902 C.ar        1 MOL      -0.0552
      8 N1         15.5583   32.9223   45.1512 N.am        1 MOL      -0.2200
      9 O1         15.9008   31.6175   43.3866 O.2         1 MOL      -0.3196
     10 C8         18.6350   33.6297   41.7205 C.3         1 MOL      -0.0449
     11 N2         19.5664   33.1903   42.7684 N.4         1 MOL       0.2177
     12 C9         15.7714   34.7143   46.8673 C.ar        1 MOL      -0.0098
     13 C10        17.7553   36.1108   46.5449 C.ar        1 MOL      -0.0486
     14 C11        16.5987   35.7788   47.2825 C.ar        1 MOL      -0.0475
     15 H1         17.5002   35.2342   42.6040 H           1 MOL       0.0183
     16 H2         16.4890   33.9809   41.8932 H           1 MOL       0.0183
     17 H3         18.5873   31.5428   43.5851 H           1 MOL       0.0667
     18 H4         19.2772   32.6442   44.7890 H           1 MOL       0.0667
     19 H5         18.9386   35.6164   44.8588 H           1 MOL       0.0771
     20 H6         14.7873   32.4427   45.4988 H           1 MOL       0.2404
     21 H7         19.0879   34.4103   41.1052 H           1 MOL       0.0802
     22 H8         18.3650   32.7816   41.0863 H           1 MOL       0.0802
     23 H9         20.2459   32.5150   42.3966 H           1 MOL       0.2001
     24 H10        20.0577   34.0032   43.1441 H           1 MOL       0.2001
     25 H11        14.9317   34.4714   47.3966 H           1 MOL       0.0591
     26 H12        18.3494   36.8822   46.8520 H           1 MOL       0.0588
     27 H13        16.3649   36.3031   48.1288 H           1 MOL       0.0799
@<TRIPOS>BOND
     1     1     2   1
     2     1     3   1
     3     1     4   1
     4     1     5   1
     5     2     6  ar
     6     2     7  ar
     7     3     8  am
     8     3     9   2
     9     4    10   1
    10     5    11   1
    11     6     8   1
    12     6    12  ar
    13     7    13  ar
    14    10    11   1
    15    12    14  ar
    16    13    14  ar
    17     4    15   1
    18     4    16   1
    19     5    17   1
    20     5    18   1
    21     7    19   1
    22     8    20   1
    23    10    21   1
    24    10    22   1
    25    11    23   1
    26    11    24   1
    27    12    25   1
    28    13    26   1
    29    14    27   1
@<TRIPOS>SUBSTRUCTURE
     1  MOL      1

