@<TRIPOS>MOLECULE
3udh_ligand_003
    27    29
SMALL
GAST_HUCK
****
This file was generated by PARSER (from files_GN.cpp)

@<TRIPOS>ATOM
      1 C1         20.0520   36.8700   41.9483 C.3         1 MOL       0.0781
      2 C2         19.6360   36.5784   43.3383 C.ar        1 MOL      -0.0219
      3 C3         19.3403   38.1315   41.7666 C.2         1 MOL       0.2144
      4 C4         21.5830   36.9789   41.7441 C.3         1 MOL      -0.0294
      5 C5         19.6454   35.7969   40.9120 C.3         1 MOL      -0.0531
      6 C6         18.7901   37.5896   43.7934 C.ar        1 MOL       0.0939
      7 C7         19.9675   35.5044   44.1891 C.ar        1 MOL      -0.0552
      8 N1         18.6383   38.4859   42.8196 N.am        1 MOL      -0.2200
      9 O1         19.3634   38.8091   40.7515 O.2         1 MOL      -0.3196
     10 C8         21.7887   36.6496   40.2503 C.3         1 MOL      -0.0449
     11 N2         20.5738   35.9569   39.7827 N.4         1 MOL       0.2177
     12 C9         18.2501   37.5736   45.0908 C.ar        1 MOL      -0.0098
     13 C10        19.4400   35.4716   45.4974 C.ar        1 MOL      -0.0486
     14 C11        18.5838   36.5022   45.9460 C.ar        1 MOL      -0.0475
     15 H1         22.1075   36.2315   42.3483 H           1 MOL       0.0183
     16 H2         21.9800   37.9671   42.0032 H           1 MOL       0.0183
     17 H3         18.6111   35.8909   40.5789 H           1 MOL       0.0667
     18 H4         19.7887   34.7920   41.3191 H           1 MOL       0.0667
     19 H5         20.5849   34.7579   43.8684 H           1 MOL       0.0771
     20 H6         18.0988   39.2908   42.8828 H           1 MOL       0.2404
     21 H7         22.6614   36.0110   40.1048 H           1 MOL       0.0802
     22 H8         21.9240   37.5686   39.6711 H           1 MOL       0.0802
     23 H9         20.1519   36.5154   39.0375 H           1 MOL       0.2001
     24 H10        20.7921   35.0287   39.4080 H           1 MOL       0.2001
     25 H11        17.6333   38.3235   45.4085 H           1 MOL       0.0591
     26 H12        19.6784   34.7021   46.1266 H           1 MOL       0.0588
     27 H13        18.2079   36.4741   46.8957 H           1 MOL       0.0799
@<TRIPOS>BOND
     1     1     2   1
     2     1     3   1
     3     1     4   1
     4     1     5   1
     5     2     6  ar
     6     2     7  ar
     7     3     8  am
     8     3     9   2
     9     4    10   1
    10     5    11   1
    11     6     8   1
    12     6    12  ar
    13     7    13  ar
    14    10    11   1
    15    12    14  ar
    16    13    14  ar
    17     4    15   1
    18     4    16   1
    19     5    17   1
    20     5    18   1
    21     7    19   1
    22     8    20   1
    23    10    21   1
    24    10    22   1
    25    11    23   1
    26    11    24   1
    27    12    25   1
    28    13    26   1
    29    14    27   1
@<TRIPOS>SUBSTRUCTURE
     1  MOL      1

