@<TRIPOS>MOLECULE
3udh_ligand_020
    27    29
SMALL
GAST_HUCK
****
This file was generated by PARSER (from files_GN.cpp)

@<TRIPOS>ATOM
      1 C1         26.0962   36.8722   42.1769 C.3         1 MOL       0.0781
      2 C2         24.6481   37.1519   42.0101 C.ar        1 MOL      -0.0219
      3 C3         26.5345   37.2306   40.8282 C.2         1 MOL       0.2144
      4 C4         26.7667   37.7109   43.3069 C.3         1 MOL      -0.0294
      5 C5         26.3927   35.3893   42.5495 C.3         1 MOL      -0.0531
      6 C6         24.3976   37.5889   40.7098 C.ar        1 MOL       0.0939
      7 C7         23.5807   37.0154   42.9244 C.ar        1 MOL      -0.0552
      8 N1         25.5516   37.6212   40.0472 N.am        1 MOL      -0.2200
      9 O1         27.6893   37.1861   40.4327 O.2         1 MOL      -0.3196
     10 C8         27.4950   36.6742   44.1806 C.3         1 MOL      -0.0449
     11 N2         26.7563   35.4219   43.9723 N.4         1 MOL       0.2177
     12 C9         23.0983   37.9004   40.2736 C.ar        1 MOL      -0.0098
     13 C10        22.2715   37.3272   42.5022 C.ar        1 MOL      -0.0486
     14 C11        22.0304   37.7721   41.1850 C.ar        1 MOL      -0.0475
     15 H1         26.0230   38.2388   43.9101 H           1 MOL       0.0183
     16 H2         27.4793   38.4532   42.9317 H           1 MOL       0.0183
     17 H3         27.2392   34.9846   41.9844 H           1 MOL       0.0667
     18 H4         25.5341   34.7293   42.3982 H           1 MOL       0.0667
     19 H5         23.7520   36.6927   43.8787 H           1 MOL       0.0771
     20 H6         25.6491   37.8936   39.1205 H           1 MOL       0.2404
     21 H7         27.4870   36.9611   45.2351 H           1 MOL       0.0802
     22 H8         28.5322   36.5548   43.8538 H           1 MOL       0.0802
     23 H9         27.3156   34.6017   44.2442 H           1 MOL       0.2001
     24 H10        25.9000   35.4573   44.5325 H           1 MOL       0.2001
     25 H11        22.9273   38.1990   39.3119 H           1 MOL       0.0591
     26 H12        21.4898   37.2235   43.1538 H           1 MOL       0.0588
     27 H13        21.0775   37.9934   40.8859 H           1 MOL       0.0799
@<TRIPOS>BOND
     1     1     2   1
     2     1     3   1
     3     1     4   1
     4     1     5   1
     5     2     6  ar
     6     2     7  ar
     7     3     8  am
     8     3     9   2
     9     4    10   1
    10     5    11   1
    11     6     8   1
    12     6    12  ar
    13     7    13  ar
    14    10    11   1
    15    12    14  ar
    16    13    14  ar
    17     4    15   1
    18     4    16   1
    19     5    17   1
    20     5    18   1
    21     7    19   1
    22     8    20   1
    23    10    21   1
    24    10    22   1
    25    11    23   1
    26    11    24   1
    27    12    25   1
    28    13    26   1
    29    14    27   1
@<TRIPOS>SUBSTRUCTURE
     1  MOL      1

