@<TRIPOS>MOLECULE
3udh_ligand_052
    27    29
SMALL
GAST_HUCK
****
This file was generated by PARSER (from files_GN.cpp)

@<TRIPOS>ATOM
      1 C1         17.1529   42.0653   43.7536 C.3         1 MOL       0.0781
      2 C2         16.7479   41.5555   42.4289 C.ar        1 MOL      -0.0219
      3 C3         17.5202   43.4237   43.3612 C.2         1 MOL       0.2144
      4 C4         16.0239   41.9839   44.8184 C.3         1 MOL      -0.0294
      5 C5         18.3344   41.2585   44.3514 C.3         1 MOL      -0.0531
      6 C6         16.9155   42.5535   41.4712 C.ar        1 MOL       0.0939
      7 C7         16.2905   40.2759   42.0560 C.ar        1 MOL      -0.0552
      8 N1         17.3761   43.6480   42.0736 N.am        1 MOL      -0.2200
      9 O1         17.9351   44.2783   44.1308 O.2         1 MOL      -0.3196
     10 C8         16.6724   41.2719   46.0188 C.3         1 MOL      -0.0449
     11 N2         17.7523   40.4655   45.4386 N.4         1 MOL       0.2177
     12 C9         16.6113   42.3278   40.1201 C.ar        1 MOL      -0.0098
     13 C10        15.9866   40.0307   40.7027 C.ar        1 MOL      -0.0486
     14 C11        16.1220   41.0597   39.7440 C.ar        1 MOL      -0.0475
     15 H1         15.1732   41.3929   44.4677 H           1 MOL       0.0183
     16 H2         15.6542   42.9676   45.1078 H           1 MOL       0.0183
     17 H3         19.1012   41.9143   44.7723 H           1 MOL       0.0667
     18 H4         18.8084   40.5957   43.6246 H           1 MOL       0.0667
     19 H5         16.1801   39.5373   42.7550 H           1 MOL       0.0771
     20 H6         17.5752   44.4852   41.6243 H           1 MOL       0.2404
     21 H7         15.9592   40.6388   46.5517 H           1 MOL       0.0802
     22 H8         17.0972   41.9994   46.7171 H           1 MOL       0.0802
     23 H9         18.4708   40.2736   46.1360 H           1 MOL       0.2001
     24 H10        17.3708   39.5932   45.0638 H           1 MOL       0.2001
     25 H11        16.7287   43.0737   39.4316 H           1 MOL       0.0591
     26 H12        15.6640   39.1035   40.4198 H           1 MOL       0.0588
     27 H13        15.8613   40.8865   38.7718 H           1 MOL       0.0799
@<TRIPOS>BOND
     1     1     2   1
     2     1     3   1
     3     1     4   1
     4     1     5   1
     5     2     6  ar
     6     2     7  ar
     7     3     8  am
     8     3     9   2
     9     4    10   1
    10     5    11   1
    11     6     8   1
    12     6    12  ar
    13     7    13  ar
    14    10    11   1
    15    12    14  ar
    16    13    14  ar
    17     4    15   1
    18     4    16   1
    19     5    17   1
    20     5    18   1
    21     7    19   1
    22     8    20   1
    23    10    21   1
    24    10    22   1
    25    11    23   1
    26    11    24   1
    27    12    25   1
    28    13    26   1
    29    14    27   1
@<TRIPOS>SUBSTRUCTURE
     1  MOL      1

