@<TRIPOS>MOLECULE
3udh_ligand_075
    27    29
SMALL
GAST_HUCK
****
This file was generated by PARSER (from files_GN.cpp)

@<TRIPOS>ATOM
      1 C1         31.9611   35.6977   46.0301 C.3         1 MOL       0.0781
      2 C2         31.3701   35.7613   47.3840 C.ar        1 MOL      -0.0219
      3 C3         30.7380   35.8622   45.2454 C.2         1 MOL       0.2144
      4 C4         33.0208   36.7858   45.7424 C.3         1 MOL      -0.0294
      5 C5         32.7206   34.3861   45.7098 C.3         1 MOL      -0.0531
      6 C6         29.9909   35.9387   47.2808 C.ar        1 MOL       0.0939
      7 C7         31.9738   35.6743   48.6544 C.ar        1 MOL      -0.0552
      8 N1         29.6636   35.9896   45.9907 N.am        1 MOL      -0.2200
      9 O1         30.6858   35.8715   44.0238 O.2         1 MOL      -0.3196
     10 C8         33.8677   36.1851   44.6039 C.3         1 MOL      -0.0449
     11 N2         33.6681   34.7243   44.6334 N.4         1 MOL       0.2177
     12 C9         29.1726   36.0393   48.4219 C.ar        1 MOL      -0.0098
     13 C10        31.1675   35.7581   49.8102 C.ar        1 MOL      -0.0486
     14 C11        29.7722   35.9413   49.6927 C.ar        1 MOL      -0.0475
     15 H1         33.6604   36.9387   46.6162 H           1 MOL       0.0183
     16 H2         32.5786   37.7468   45.4595 H           1 MOL       0.0183
     17 H3         32.0603   33.5755   45.3920 H           1 MOL       0.0667
     18 H4         33.2934   34.0445   46.5773 H           1 MOL       0.0667
     19 H5         32.9852   35.5507   48.7428 H           1 MOL       0.0771
     20 H6         28.7676   36.1205   45.6468 H           1 MOL       0.2404
     21 H7         34.9279   36.4311   44.7194 H           1 MOL       0.0802
     22 H8         33.5217   36.5650   43.6419 H           1 MOL       0.0802
     23 H9         33.2846   34.4191   43.7336 H           1 MOL       0.2001
     24 H10        34.5621   34.2544   44.7980 H           1 MOL       0.2001
     25 H11        28.1630   36.1838   48.3336 H           1 MOL       0.0591
     26 H12        31.5978   35.6987   50.7354 H           1 MOL       0.0588
     27 H13        29.1973   36.0117   50.5348 H           1 MOL       0.0799
@<TRIPOS>BOND
     1     1     2   1
     2     1     3   1
     3     1     4   1
     4     1     5   1
     5     2     6  ar
     6     2     7  ar
     7     3     8  am
     8     3     9   2
     9     4    10   1
    10     5    11   1
    11     6     8   1
    12     6    12  ar
    13     7    13  ar
    14    10    11   1
    15    12    14  ar
    16    13    14  ar
    17     4    15   1
    18     4    16   1
    19     5    17   1
    20     5    18   1
    21     7    19   1
    22     8    20   1
    23    10    21   1
    24    10    22   1
    25    11    23   1
    26    11    24   1
    27    12    25   1
    28    13    26   1
    29    14    27   1
@<TRIPOS>SUBSTRUCTURE
     1  MOL      1

