@<TRIPOS>MOLECULE
3udh_ligand_083
    27    29
SMALL
GAST_HUCK
****
This file was generated by PARSER (from files_GN.cpp)

@<TRIPOS>ATOM
      1 C1         27.2147   29.3802   44.0244 C.3         1 MOL       0.0781
      2 C2         25.8274   29.7799   44.3412 C.ar        1 MOL      -0.0219
      3 C3         27.8391   29.7095   45.3051 C.2         1 MOL       0.2144
      4 C4         27.3783   27.8949   43.6256 C.3         1 MOL      -0.0294
      5 C5         27.8368   30.1326   42.8229 C.3         1 MOL      -0.0531
      6 C6         25.7670   30.2570   45.6503 C.ar        1 MOL       0.0939
      7 C7         24.6626   29.7406   43.5477 C.ar        1 MOL      -0.0552
      8 N1         26.9880   30.1936   46.1826 N.am        1 MOL      -0.2200
      9 O1         29.0222   29.5537   45.5719 O.2         1 MOL      -0.3196
     10 C8         28.6742   27.8804   42.7924 C.3         1 MOL      -0.0449
     11 N2         28.8910   29.2519   42.2953 N.4         1 MOL       0.2177
     12 C9         24.5601   30.7056   46.2124 C.ar        1 MOL      -0.0098
     13 C10        23.4428   30.1856   44.0962 C.ar        1 MOL      -0.0486
     14 C11        23.3911   30.6672   45.4226 C.ar        1 MOL      -0.0475
     15 H1         26.5441   27.5699   42.9970 H           1 MOL       0.0183
     16 H2         27.4429   27.2251   44.4885 H           1 MOL       0.0183
     17 H3         28.2520   31.1053   43.0986 H           1 MOL       0.0667
     18 H4         27.0959   30.2846   42.0336 H           1 MOL       0.0667
     19 H5         24.6992   29.3943   42.5863 H           1 MOL       0.0771
     20 H6         27.2135   30.4590   47.0879 H           1 MOL       0.2404
     21 H7         28.6004   27.1805   41.9581 H           1 MOL       0.0802
     22 H8         29.5227   27.5935   43.4179 H           1 MOL       0.0802
     23 H9         29.8033   29.5836   42.6129 H           1 MOL       0.2001
     24 H10        28.8655   29.2612   41.2726 H           1 MOL       0.2001
     25 H11        24.5301   31.0523   47.1728 H           1 MOL       0.0591
     26 H12        22.5915   30.1605   43.5305 H           1 MOL       0.0588
     27 H13        22.5034   30.9901   45.8119 H           1 MOL       0.0799
@<TRIPOS>BOND
     1     1     2   1
     2     1     3   1
     3     1     4   1
     4     1     5   1
     5     2     6  ar
     6     2     7  ar
     7     3     8  am
     8     3     9   2
     9     4    10   1
    10     5    11   1
    11     6     8   1
    12     6    12  ar
    13     7    13  ar
    14    10    11   1
    15    12    14  ar
    16    13    14  ar
    17     4    15   1
    18     4    16   1
    19     5    17   1
    20     5    18   1
    21     7    19   1
    22     8    20   1
    23    10    21   1
    24    10    22   1
    25    11    23   1
    26    11    24   1
    27    12    25   1
    28    13    26   1
    29    14    27   1
@<TRIPOS>SUBSTRUCTURE
     1  MOL      1

