@<TRIPOS>MOLECULE
3udh_ligand_031
    27    29
SMALL
GAST_HUCK
****
This file was generated by PARSER (from files_GN.cpp)

@<TRIPOS>ATOM
      1 C1         15.8882   41.4063   44.4894 C.3         1 MOL       0.0781
      2 C2         15.3429   41.1300   45.8404 C.ar        1 MOL      -0.0219
      3 C3         17.1636   41.9922   44.8884 C.2         1 MOL       0.2144
      4 C4         16.0156   40.1361   43.5953 C.3         1 MOL      -0.0294
      5 C5         15.0026   42.3855   43.6724 C.3         1 MOL      -0.0531
      6 C6         16.2543   41.5522   46.8076 C.ar        1 MOL       0.0939
      7 C7         14.1128   40.5640   46.2327 C.ar        1 MOL      -0.0552
      8 N1         17.3193   42.0581   46.1904 N.am        1 MOL      -0.2200
      9 O1         18.0279   42.3723   44.1115 O.2         1 MOL      -0.3196
     10 C8         15.2931   40.5073   42.2868 C.3         1 MOL      -0.0449
     11 N2         14.3332   41.5471   42.6730 N.4         1 MOL       0.2177
     12 C9         15.9910   41.4153   48.1811 C.ar        1 MOL      -0.0098
     13 C10        13.8245   40.4300   47.6074 C.ar        1 MOL      -0.0486
     14 C11        14.7607   40.8524   48.5768 C.ar        1 MOL      -0.0475
     15 H1         15.5169   39.2738   44.0480 H           1 MOL       0.0183
     16 H2         17.0533   39.8558   43.3895 H           1 MOL       0.0183
     17 H3         15.5994   43.1369   43.1466 H           1 MOL       0.0667
     18 H4         14.2577   42.9010   44.2809 H           1 MOL       0.0667
     19 H5         13.4368   40.2580   45.5307 H           1 MOL       0.0771
     20 H6         18.1210   42.3736   46.6327 H           1 MOL       0.2404
     21 H7         14.7780   39.6516   41.8439 H           1 MOL       0.0802
     22 H8         15.9998   40.9164   41.5583 H           1 MOL       0.0802
     23 H9         14.0582   42.1071   41.8650 H           1 MOL       0.2001
     24 H10        13.5085   41.1120   43.0938 H           1 MOL       0.2001
     25 H11        16.6738   41.7236   48.8766 H           1 MOL       0.0591
     26 H12        12.9339   40.0252   47.9022 H           1 MOL       0.0588
     27 H13        14.5434   40.7526   49.5709 H           1 MOL       0.0799
@<TRIPOS>BOND
     1     1     2   1
     2     1     3   1
     3     1     4   1
     4     1     5   1
     5     2     6  ar
     6     2     7  ar
     7     3     8  am
     8     3     9   2
     9     4    10   1
    10     5    11   1
    11     6     8   1
    12     6    12  ar
    13     7    13  ar
    14    10    11   1
    15    12    14  ar
    16    13    14  ar
    17     4    15   1
    18     4    16   1
    19     5    17   1
    20     5    18   1
    21     7    19   1
    22     8    20   1
    23    10    21   1
    24    10    22   1
    25    11    23   1
    26    11    24   1
    27    12    25   1
    28    13    26   1
    29    14    27   1
@<TRIPOS>SUBSTRUCTURE
     1  MOL      1

