@<TRIPOS>MOLECULE
3udh_ligand_059
    27    29
SMALL
GAST_HUCK
****
This file was generated by PARSER (from files_GN.cpp)

@<TRIPOS>ATOM
      1 C1         25.2929   37.1741   41.3457 C.3         1 MOL       0.0781
      2 C2         26.6058   36.9796   42.0022 C.ar        1 MOL      -0.0219
      3 C3         24.4971   37.4582   42.5362 C.2         1 MOL       0.2144
      4 C4         25.3015   38.3323   40.3071 C.3         1 MOL      -0.0294
      5 C5         24.7999   35.9201   40.5654 C.3         1 MOL      -0.0531
      6 C6         26.4736   37.1552   43.3793 C.ar        1 MOL       0.0939
      7 C7         27.8638   36.6696   41.4474 C.ar        1 MOL      -0.0552
      8 N1         25.2004   37.4410   43.6438 N.am        1 MOL      -0.2200
      9 O1         23.2984   37.6954   42.5322 O.2         1 MOL      -0.3196
     10 C8         24.7002   37.7098   39.0400 C.3         1 MOL      -0.0449
     11 N2         24.9502   36.2708   39.1493 N.4         1 MOL       0.2177
     12 C9         27.5739   37.0286   44.2464 C.ar        1 MOL      -0.0098
     13 C10        28.9770   36.5422   42.3034 C.ar        1 MOL      -0.0486
     14 C11        28.8339   36.7196   43.6961 C.ar        1 MOL      -0.0475
     15 H1         26.3145   38.6750   40.0842 H           1 MOL       0.0183
     16 H2         24.7122   39.1987   40.6201 H           1 MOL       0.0183
     17 H3         23.7438   35.7063   40.7567 H           1 MOL       0.0667
     18 H4         25.3779   35.0199   40.7896 H           1 MOL       0.0667
     19 H5         27.9689   36.5456   40.4387 H           1 MOL       0.0771
     20 H6         24.8454   37.6035   44.5272 H           1 MOL       0.2404
     21 H7         25.1620   38.1059   38.1349 H           1 MOL       0.0802
     22 H8         23.6219   37.8897   38.9998 H           1 MOL       0.0802
     23 H9         24.2706   35.7764   38.5687 H           1 MOL       0.2001
     24 H10        25.9035   36.0634   38.8474 H           1 MOL       0.2001
     25 H11        27.4636   37.1589   45.2531 H           1 MOL       0.0591
     26 H12        29.8939   36.3259   41.9109 H           1 MOL       0.0588
     27 H13        29.6470   36.6267   44.3084 H           1 MOL       0.0799
@<TRIPOS>BOND
     1     1     2   1
     2     1     3   1
     3     1     4   1
     4     1     5   1
     5     2     6  ar
     6     2     7  ar
     7     3     8  am
     8     3     9   2
     9     4    10   1
    10     5    11   1
    11     6     8   1
    12     6    12  ar
    13     7    13  ar
    14    10    11   1
    15    12    14  ar
    16    13    14  ar
    17     4    15   1
    18     4    16   1
    19     5    17   1
    20     5    18   1
    21     7    19   1
    22     8    20   1
    23    10    21   1
    24    10    22   1
    25    11    23   1
    26    11    24   1
    27    12    25   1
    28    13    26   1
    29    14    27   1
@<TRIPOS>SUBSTRUCTURE
     1  MOL      1

