@<TRIPOS>MOLECULE
3udh_ligand_069
    27    29
SMALL
GAST_HUCK
****
This file was generated by PARSER (from files_GN.cpp)

@<TRIPOS>ATOM
      1 C1         18.0033   34.8305   45.4516 C.3         1 MOL       0.0781
      2 C2         18.9417   35.6431   44.6399 C.ar        1 MOL      -0.0219
      3 C3         18.9849   33.9933   46.1353 C.2         1 MOL       0.2144
      4 C4         17.1104   35.6766   46.4075 C.3         1 MOL      -0.0294
      5 C5         17.0008   34.0206   44.5812 C.3         1 MOL      -0.0531
      6 C6         20.2517   35.2359   44.8906 C.ar        1 MOL       0.0939
      7 C7         18.6871   36.6699   43.7100 C.ar        1 MOL      -0.0552
      8 N1         20.2248   34.2559   45.7903 N.am        1 MOL      -0.2200
      9 O1         18.7100   33.1263   46.9531 O.2         1 MOL      -0.3196
     10 C8         15.6732   35.2125   46.1097 C.3         1 MOL      -0.0449
     11 N2         15.7180   34.7173   44.7302 N.4         1 MOL       0.2177
     12 C9         21.3444   35.8269   44.2345 C.ar        1 MOL      -0.0098
     13 C10        19.7728   37.2741   43.0402 C.ar        1 MOL      -0.0486
     14 C11        21.0951   36.8545   43.3032 C.ar        1 MOL      -0.0475
     15 H1         17.1914   36.7468   46.1960 H           1 MOL       0.0183
     16 H2         17.3473   35.5198   47.4648 H           1 MOL       0.0183
     17 H3         16.8787   32.9983   44.9495 H           1 MOL       0.0667
     18 H4         17.2828   33.9686   43.5268 H           1 MOL       0.0667
     19 H5         17.7311   36.9762   43.5217 H           1 MOL       0.0771
     20 H6         21.0059   33.7910   46.1320 H           1 MOL       0.2404
     21 H7         14.9535   36.0298   46.1993 H           1 MOL       0.0802
     22 H8         15.3795   34.4012   46.7830 H           1 MOL       0.0802
     23 H9         14.9364   34.0855   44.5382 H           1 MOL       0.2001
     24 H10        15.6780   35.5146   44.0905 H           1 MOL       0.2001
     25 H11        22.2991   35.5177   44.4312 H           1 MOL       0.0591
     26 H12        19.6004   38.0209   42.3641 H           1 MOL       0.0588
     27 H13        21.8761   37.3005   42.8174 H           1 MOL       0.0799
@<TRIPOS>BOND
     1     1     2   1
     2     1     3   1
     3     1     4   1
     4     1     5   1
     5     2     6  ar
     6     2     7  ar
     7     3     8  am
     8     3     9   2
     9     4    10   1
    10     5    11   1
    11     6     8   1
    12     6    12  ar
    13     7    13  ar
    14    10    11   1
    15    12    14  ar
    16    13    14  ar
    17     4    15   1
    18     4    16   1
    19     5    17   1
    20     5    18   1
    21     7    19   1
    22     8    20   1
    23    10    21   1
    24    10    22   1
    25    11    23   1
    26    11    24   1
    27    12    25   1
    28    13    26   1
    29    14    27   1
@<TRIPOS>SUBSTRUCTURE
     1  MOL      1

