@<TRIPOS>MOLECULE
3ueu_ligand_029
    37    36
SMALL
GAST_HUCK
****
This file was generated by PARSER (from files_GN.cpp)

@<TRIPOS>ATOM
      1 O1         -2.5199    6.9788   16.0723 O.co2       1 DAO      -0.5690
      2 O2         -1.3473    8.5782   17.2978 O.co2       1 DAO      -0.5690
      3 C1         -1.6819    7.2836   17.0955 C.2         1 DAO       0.0348
      4 C2         -1.0991    6.2106   17.9283 C.3         1 DAO       0.0002
      5 C3         -2.1666    5.3656   18.6907 C.3         1 DAO      -0.0414
      6 C4         -2.0625    5.3991   20.2401 C.3         1 DAO      -0.0516
      7 C5         -2.3001    6.7681   20.9346 C.3         1 DAO      -0.0530
      8 C6         -3.6613    7.4210   20.5646 C.3         1 DAO      -0.0531
      9 C7         -4.1237    8.5273   21.5503 C.3         1 DAO      -0.0531
     10 C8         -3.6311    9.9589   21.1992 C.3         1 DAO      -0.0531
     11 C9         -3.8854   10.9937   22.3277 C.3         1 DAO      -0.0531
     12 C10        -5.3882   11.2736   22.6284 C.3         1 DAO      -0.0533
     13 C11        -5.6320   12.3416   23.7270 C.3         1 DAO      -0.0559
     14 C12        -5.2336   11.8925   25.1543 C.3         1 DAO      -0.0653
     15 H1         -0.3929    6.6551   18.6323 H           1 DAO       0.0430
     16 H2         -0.5231    5.5593   17.2674 H           1 DAO       0.0430
     17 H3         -2.0572    4.3208   18.3842 H           1 DAO       0.0283
     18 H4         -3.1774    5.6625   18.3937 H           1 DAO       0.0283
     19 H5         -1.0739    5.0251   20.5260 H           1 DAO       0.0266
     20 H6         -2.8018    4.6954   20.6348 H           1 DAO       0.0266
     21 H7         -1.4786    7.4547   20.7109 H           1 DAO       0.0265
     22 H8         -2.2773    6.5808   22.0110 H           1 DAO       0.0265
     23 H9         -4.4201    6.6350   20.5678 H           1 DAO       0.0265
     24 H10        -3.6093    7.8238   19.5489 H           1 DAO       0.0265
     25 H11        -3.8034    8.2760   22.5645 H           1 DAO       0.0265
     26 H12        -5.2132    8.5376   21.5475 H           1 DAO       0.0265
     27 H13        -4.1262   10.2955   20.2857 H           1 DAO       0.0265
     28 H14        -2.5590    9.9301   20.9985 H           1 DAO       0.0265
     29 H15        -3.4102   11.9331   22.0361 H           1 DAO       0.0265
     30 H16        -3.3882   10.6448   23.2355 H           1 DAO       0.0265
     31 H17        -5.8867   10.3486   22.9323 H           1 DAO       0.0265
     32 H18        -5.8620   11.6221   21.7071 H           1 DAO       0.0265
     33 H19        -6.6985   12.5810   23.7465 H           1 DAO       0.0263
     34 H20        -5.0978   13.2619   23.4725 H           1 DAO       0.0263
     35 H21        -5.4893   12.6717   25.8759 H           1 DAO       0.0230
     36 H22        -4.1591   11.7114   25.2221 H           1 DAO       0.0230
     37 H23        -5.7649   10.9765   25.4268 H           1 DAO       0.0230
@<TRIPOS>BOND
     1     1     3  ar
     2     3     2  ar
     3     3     4   1
     4     4     5   1
     5     5     6   1
     6     6     7   1
     7     7     8   1
     8     8     9   1
     9     9    10   1
    10    10    11   1
    11    11    12   1
    12    12    13   1
    13    13    14   1
    14     4    15   1
    15     4    16   1
    16     5    17   1
    17     5    18   1
    18     6    19   1
    19     6    20   1
    20     7    21   1
    21     7    22   1
    22     8    23   1
    23     8    24   1
    24     9    25   1
    25     9    26   1
    26    10    27   1
    27    10    28   1
    28    11    29   1
    29    11    30   1
    30    12    31   1
    31    12    32   1
    32    13    33   1
    33    13    34   1
    34    14    35   1
    35    14    36   1
    36    14    37   1
@<TRIPOS>SUBSTRUCTURE
     1  DAO      3

