@<TRIPOS>MOLECULE
3ueu_ligand_028
    37    36
SMALL
GAST_HUCK
****
This file was generated by PARSER (from files_GN.cpp)

@<TRIPOS>ATOM
      1 O1         -2.9076   19.1917   16.7433 O.co2       1 DAO      -0.5690
      2 O2         -3.5737   17.2260   15.7081 O.co2       1 DAO      -0.5690
      3 C1         -3.0773   17.8472   16.8081 C.2         1 DAO       0.0348
      4 C2         -2.9967   17.1368   18.0923 C.3         1 DAO       0.0002
      5 C3         -1.7898   16.1608   18.1908 C.3         1 DAO      -0.0414
      6 C4         -1.7628   14.9765   17.1764 C.3         1 DAO      -0.0516
      7 C5         -2.8946   13.9216   17.3455 C.3         1 DAO      -0.0530
      8 C6         -2.4560   12.6299   18.1045 C.3         1 DAO      -0.0531
      9 C7         -3.5678   11.5458   18.0926 C.3         1 DAO      -0.0531
     10 C8         -3.1388   10.1335   18.5948 C.3         1 DAO      -0.0531
     11 C9         -2.7058   10.0091   20.0830 C.3         1 DAO      -0.0531
     12 C10        -3.5145   10.8268   21.1265 C.3         1 DAO      -0.0533
     13 C11        -5.0335   10.5106   21.2407 C.3         1 DAO      -0.0559
     14 C12        -5.3732    9.1853   21.9798 C.3         1 DAO      -0.0653
     15 H1         -3.9366   16.5993   18.2666 H           1 DAO       0.0430
     16 H2         -2.8962   17.8809   18.8913 H           1 DAO       0.0430
     17 H3         -1.7619   15.7532   19.1995 H           1 DAO       0.0283
     18 H4         -0.8740   16.7430   18.0510 H           1 DAO       0.0283
     19 H5         -0.7937   14.4701   17.2535 H           1 DAO       0.0266
     20 H6         -1.8149   15.3784   16.1614 H           1 DAO       0.0266
     21 H7         -3.2439   13.6330   16.3481 H           1 DAO       0.0265
     22 H8         -3.7471   14.3669   17.8617 H           1 DAO       0.0265
     23 H9         -2.2102   12.8592   19.1536 H           1 DAO       0.0265
     24 H10        -1.5657   12.2234   17.6161 H           1 DAO       0.0265
     25 H11        -3.9446   11.4240   17.0656 H           1 DAO       0.0265
     26 H12        -4.4076   11.9053   18.7035 H           1 DAO       0.0265
     27 H13        -2.3168    9.7858   17.9732 H           1 DAO       0.0265
     28 H14        -3.9792    9.4564   18.4250 H           1 DAO       0.0265
     29 H15        -1.6598   10.3231   20.1582 H           1 DAO       0.0265
     30 H16        -2.7347    8.9548   20.3637 H           1 DAO       0.0265
     31 H17        -3.3988   11.8916   20.8779 H           1 DAO       0.0265
     32 H18        -3.0586   10.6643   22.1154 H           1 DAO       0.0265
     33 H19        -5.4718   10.4882   20.2422 H           1 DAO       0.0263
     34 H20        -5.5095   11.3328   21.7867 H           1 DAO       0.0263
     35 H21        -6.4572    9.0536   22.0167 H           1 DAO       0.0230
     36 H22        -4.9879    9.2123   23.0010 H           1 DAO       0.0230
     37 H23        -4.9361    8.3296   21.4561 H           1 DAO       0.0230
@<TRIPOS>BOND
     1     1     3  ar
     2     3     2  ar
     3     3     4   1
     4     4     5   1
     5     5     6   1
     6     6     7   1
     7     7     8   1
     8     8     9   1
     9     9    10   1
    10    10    11   1
    11    11    12   1
    12    12    13   1
    13    13    14   1
    14     4    15   1
    15     4    16   1
    16     5    17   1
    17     5    18   1
    18     6    19   1
    19     6    20   1
    20     7    21   1
    21     7    22   1
    22     8    23   1
    23     8    24   1
    24     9    25   1
    25     9    26   1
    26    10    27   1
    27    10    28   1
    28    11    29   1
    29    11    30   1
    30    12    31   1
    31    12    32   1
    32    13    33   1
    33    13    34   1
    34    14    35   1
    35    14    36   1
    36    14    37   1
@<TRIPOS>SUBSTRUCTURE
     1  DAO      3

