@<TRIPOS>MOLECULE
3ueu_ligand_030
    37    36
SMALL
GAST_HUCK
****
This file was generated by PARSER (from files_GN.cpp)

@<TRIPOS>ATOM
      1 O1         -5.8537    4.3427   15.6047 O.co2       1 DAO      -0.5690
      2 O2         -5.0412    2.6902   17.0250 O.co2       1 DAO      -0.5690
      3 C1         -4.8905    3.4487   15.9153 C.2         1 DAO       0.0348
      4 C2         -3.6951    3.2940   15.0510 C.3         1 DAO       0.0002
      5 C3         -2.3750    3.6643   15.7665 C.3         1 DAO      -0.0414
      6 C4         -2.2413    5.1861   16.0715 C.3         1 DAO      -0.0516
      7 C5         -1.3697    5.4822   17.3200 C.3         1 DAO      -0.0530
      8 C6         -1.3535    6.9936   17.7193 C.3         1 DAO      -0.0531
      9 C7         -2.1269    7.2998   19.0338 C.3         1 DAO      -0.0531
     10 C8         -2.1101    8.7974   19.4757 C.3         1 DAO      -0.0531
     11 C9         -2.7231    9.7926   18.4425 C.3         1 DAO      -0.0531
     12 C10        -1.6934   10.7221   17.7269 C.3         1 DAO      -0.0533
     13 C11        -1.9160   12.2415   17.9391 C.3         1 DAO      -0.0559
     14 C12        -1.8525   12.7169   19.4100 C.3         1 DAO      -0.0653
     15 H1         -3.8083    3.9071   14.1550 H           1 DAO       0.0430
     16 H2         -3.6499    2.2476   14.7331 H           1 DAO       0.0430
     17 H3         -1.5443    3.3555   15.1279 H           1 DAO       0.0283
     18 H4         -2.3093    3.0992   16.7024 H           1 DAO       0.0283
     19 H5         -3.2414    5.5912   16.2305 H           1 DAO       0.0266
     20 H6         -1.8065    5.6804   15.1961 H           1 DAO       0.0266
     21 H7         -0.3468    5.1679   17.1078 H           1 DAO       0.0265
     22 H8         -1.7281    4.8942   18.1667 H           1 DAO       0.0265
     23 H9         -1.7676    7.5752   16.8951 H           1 DAO       0.0265
     24 H10        -0.3156    7.3100   17.8586 H           1 DAO       0.0265
     25 H11        -1.6823    6.7139   19.8449 H           1 DAO       0.0265
     26 H12        -3.1674    6.9841   18.9352 H           1 DAO       0.0265
     27 H13        -1.0886    9.0876   19.7392 H           1 DAO       0.0265
     28 H14        -2.6978    8.8575   20.3968 H           1 DAO       0.0265
     29 H15        -3.4707   10.4120   18.9481 H           1 DAO       0.0265
     30 H16        -3.2766    9.2274   17.6842 H           1 DAO       0.0265
     31 H17        -1.7513   10.5372   16.6515 H           1 DAO       0.0265
     32 H18        -0.6757   10.4736   18.0351 H           1 DAO       0.0265
     33 H19        -2.8850   12.5266   17.5192 H           1 DAO       0.0263
     34 H20        -1.1456   12.7824   17.3779 H           1 DAO       0.0263
     35 H21        -1.9507   13.8054   19.4467 H           1 DAO       0.0230
     36 H22        -0.8954   12.4373   19.8572 H           1 DAO       0.0230
     37 H23        -2.6611   12.2798   19.9965 H           1 DAO       0.0230
@<TRIPOS>BOND
     1     1     3  ar
     2     3     2  ar
     3     3     4   1
     4     4     5   1
     5     5     6   1
     6     6     7   1
     7     7     8   1
     8     8     9   1
     9     9    10   1
    10    10    11   1
    11    11    12   1
    12    12    13   1
    13    13    14   1
    14     4    15   1
    15     4    16   1
    16     5    17   1
    17     5    18   1
    18     6    19   1
    19     6    20   1
    20     7    21   1
    21     7    22   1
    22     8    23   1
    23     8    24   1
    24     9    25   1
    25     9    26   1
    26    10    27   1
    27    10    28   1
    28    11    29   1
    29    11    30   1
    30    12    31   1
    31    12    32   1
    32    13    33   1
    33    13    34   1
    34    14    35   1
    35    14    36   1
    36    14    37   1
@<TRIPOS>SUBSTRUCTURE
     1  DAO      3

