@<TRIPOS>MOLECULE
3ueu_ligand_023
    37    36
SMALL
GAST_HUCK
****
This file was generated by PARSER (from files_GN.cpp)

@<TRIPOS>ATOM
      1 O1         -3.5103    4.4978   16.1992 O.co2       1 DAO      -0.5690
      2 O2         -1.6166    5.0671   15.0103 O.co2       1 DAO      -0.5690
      3 C1         -2.2819    5.0626   16.1819 C.2         1 DAO       0.0348
      4 C2         -1.9241    6.0511   17.2148 C.3         1 DAO       0.0002
      5 C3         -2.5338    7.4514   16.9416 C.3         1 DAO      -0.0414
      6 C4         -1.6997    8.6003   17.5607 C.3         1 DAO      -0.0516
      7 C5         -2.3204   10.0040   17.3045 C.3         1 DAO      -0.0530
      8 C6         -1.7792   11.1233   18.2449 C.3         1 DAO      -0.0531
      9 C7         -2.7128   11.5245   19.4237 C.3         1 DAO      -0.0531
     10 C8         -3.1609   10.3386   20.3237 C.3         1 DAO      -0.0531
     11 C9         -3.8789   10.7564   21.6416 C.3         1 DAO      -0.0531
     12 C10        -5.4270   10.6481   21.5766 C.3         1 DAO      -0.0533
     13 C11        -6.1277   10.9646   22.9253 C.3         1 DAO      -0.0559
     14 C12        -6.0956   12.4579   23.3275 C.3         1 DAO      -0.0653
     15 H1         -0.8405    6.1201   17.2462 H           1 DAO       0.0430
     16 H2         -2.2643    5.6773   18.1769 H           1 DAO       0.0430
     17 H3         -3.5522    7.4803   17.3539 H           1 DAO       0.0283
     18 H4         -2.6097    7.6302   15.8663 H           1 DAO       0.0283
     19 H5         -0.7064    8.6121   17.1034 H           1 DAO       0.0266
     20 H6         -1.5715    8.4185   18.6282 H           1 DAO       0.0266
     21 H7         -3.4129    9.9657   17.3665 H           1 DAO       0.0265
     22 H8         -2.0717   10.2857   16.2780 H           1 DAO       0.0265
     23 H9         -1.6276   12.0315   17.6492 H           1 DAO       0.0265
     24 H10        -0.7971   10.8434   18.6416 H           1 DAO       0.0265
     25 H11        -3.5921   12.0308   19.0160 H           1 DAO       0.0265
     26 H12        -2.1743   12.2428   20.0522 H           1 DAO       0.0265
     27 H13        -2.2655    9.7722   20.5977 H           1 DAO       0.0265
     28 H14        -3.8108    9.6731   19.7464 H           1 DAO       0.0265
     29 H15        -3.5887   11.7733   21.9153 H           1 DAO       0.0265
     30 H16        -3.5325   10.0918   22.4406 H           1 DAO       0.0265
     31 H17        -5.6818    9.6206   21.3005 H           1 DAO       0.0265
     32 H18        -5.8100   11.3118   20.7979 H           1 DAO       0.0265
     33 H19        -5.6769   10.3647   23.7250 H           1 DAO       0.0263
     34 H20        -7.1777   10.6616   22.8452 H           1 DAO       0.0263
     35 H21        -6.4880   12.5676   24.3376 H           1 DAO       0.0230
     36 H22        -6.7164   13.0404   22.6446 H           1 DAO       0.0230
     37 H23        -5.0803   12.8530   23.3114 H           1 DAO       0.0230
@<TRIPOS>BOND
     1     1     3  ar
     2     3     2  ar
     3     3     4   1
     4     4     5   1
     5     5     6   1
     6     6     7   1
     7     7     8   1
     8     8     9   1
     9     9    10   1
    10    10    11   1
    11    11    12   1
    12    12    13   1
    13    13    14   1
    14     4    15   1
    15     4    16   1
    16     5    17   1
    17     5    18   1
    18     6    19   1
    19     6    20   1
    20     7    21   1
    21     7    22   1
    22     8    23   1
    23     8    24   1
    24     9    25   1
    25     9    26   1
    26    10    27   1
    27    10    28   1
    28    11    29   1
    29    11    30   1
    30    12    31   1
    31    12    32   1
    32    13    33   1
    33    13    34   1
    34    14    35   1
    35    14    36   1
    36    14    37   1
@<TRIPOS>SUBSTRUCTURE
     1  DAO      3

