@<TRIPOS>MOLECULE
3ueu_ligand_001
    37    36
SMALL
GAST_HUCK
****
This file was generated by PARSER (from files_GN.cpp)

@<TRIPOS>ATOM
      1 O1         -1.5028   15.9198   19.3843 O.co2       1 DAO      -0.5690
      2 O2         -3.5570   15.2404   18.5117 O.co2       1 DAO      -0.5690
      3 C1         -2.2412   15.0120   18.6892 C.2         1 DAO       0.0348
      4 C2         -1.5928   13.7938   18.1709 C.3         1 DAO       0.0002
      5 C3         -1.6302   12.6139   19.1830 C.3         1 DAO      -0.0414
      6 C4         -2.9957   11.8729   19.2225 C.3         1 DAO      -0.0516
      7 C5         -3.2712   11.1777   20.5779 C.3         1 DAO      -0.0530
      8 C6         -4.5356   10.2752   20.5251 C.3         1 DAO      -0.0531
      9 C7         -5.1891    9.9953   21.9009 C.3         1 DAO      -0.0531
     10 C8         -6.1268   11.1113   22.4791 C.3         1 DAO      -0.0531
     11 C9         -5.5290   12.0398   23.5808 C.3         1 DAO      -0.0531
     12 C10        -5.0483   11.2822   24.8602 C.3         1 DAO      -0.0533
     13 C11        -5.5301   11.9176   26.1956 C.3         1 DAO      -0.0559
     14 C12        -5.2835   11.0207   27.4272 C.3         1 DAO      -0.0653
     15 H1         -0.5518   14.0297   17.9272 H           1 DAO       0.0430
     16 H2         -2.0789   13.4917   17.2353 H           1 DAO       0.0430
     17 H3         -1.3658   12.9903   20.1723 H           1 DAO       0.0283
     18 H4         -0.8638   11.8905   18.8950 H           1 DAO       0.0283
     19 H5         -3.0123   11.1312   18.4161 H           1 DAO       0.0266
     20 H6         -3.8137   12.5746   19.0375 H           1 DAO       0.0266
     21 H7         -3.3935   11.9478   21.3420 H           1 DAO       0.0265
     22 H8         -2.4100   10.5629   20.8640 H           1 DAO       0.0265
     23 H9         -4.2246    9.3221   20.0887 H           1 DAO       0.0265
     24 H10        -5.2850   10.6999   19.8501 H           1 DAO       0.0265
     25 H11        -4.4108    9.7375   22.6254 H           1 DAO       0.0265
     26 H12        -5.8027    9.0968   21.7765 H           1 DAO       0.0265
     27 H13        -6.9990   10.6234   22.9288 H           1 DAO       0.0265
     28 H14        -6.5121   11.7380   21.6644 H           1 DAO       0.0265
     29 H15        -6.3081   12.7616   23.8465 H           1 DAO       0.0265
     30 H16        -4.7078   12.6267   23.1715 H           1 DAO       0.0265
     31 H17        -3.9542   11.2471   24.8630 H           1 DAO       0.0265
     32 H18        -5.4078   10.2517   24.8396 H           1 DAO       0.0265
     33 H19        -6.6038   12.1108   26.1412 H           1 DAO       0.0263
     34 H20        -5.0202   12.8693   26.3544 H           1 DAO       0.0263
     35 H21        -5.6509   11.5179   28.3289 H           1 DAO       0.0230
     36 H22        -4.2171   10.8238   27.5473 H           1 DAO       0.0230
     37 H23        -5.8075   10.0705   27.3170 H           1 DAO       0.0230
@<TRIPOS>BOND
     1     1     3  ar
     2     3     2  ar
     3     3     4   1
     4     4     5   1
     5     5     6   1
     6     6     7   1
     7     7     8   1
     8     8     9   1
     9     9    10   1
    10    10    11   1
    11    11    12   1
    12    12    13   1
    13    13    14   1
    14     4    15   1
    15     4    16   1
    16     5    17   1
    17     5    18   1
    18     6    19   1
    19     6    20   1
    20     7    21   1
    21     7    22   1
    22     8    23   1
    23     8    24   1
    24     9    25   1
    25     9    26   1
    26    10    27   1
    27    10    28   1
    28    11    29   1
    29    11    30   1
    30    12    31   1
    31    12    32   1
    32    13    33   1
    33    13    34   1
    34    14    35   1
    35    14    36   1
    36    14    37   1
@<TRIPOS>SUBSTRUCTURE
     1  DAO      3

