@<TRIPOS>MOLECULE
3ueu_ligand_000
    37    36
SMALL
GAST_HUCK
****
This file was generated by PARSER (from files_GN.cpp)

@<TRIPOS>ATOM
      1 O1         -1.9979    8.8013   16.4879 O.co2       1 DAO      -0.5690
      2 O2         -0.0555   10.0655   16.2277 O.co2       1 DAO      -0.5690
      3 C1         -1.2276    9.8478   16.8665 C.2         1 DAO       0.0348
      4 C2         -1.7084   10.7641   17.9163 C.3         1 DAO       0.0002
      5 C3         -2.8146   11.7287   17.3976 C.3         1 DAO      -0.0414
      6 C4         -3.9007   12.0858   18.4511 C.3         1 DAO      -0.0516
      7 C5         -4.7131   10.8659   18.9939 C.3         1 DAO      -0.0530
      8 C6         -4.4132   10.4726   20.4808 C.3         1 DAO      -0.0531
      9 C7         -5.3976   11.0762   21.5368 C.3         1 DAO      -0.0531
     10 C8         -6.0424   10.0283   22.4945 C.3         1 DAO      -0.0531
     11 C9         -5.2308    9.7128   23.7815 C.3         1 DAO      -0.0531
     12 C10        -5.0318   10.9456   24.7159 C.3         1 DAO      -0.0533
     13 C11        -4.8947   10.5996   26.2290 C.3         1 DAO      -0.0559
     14 C12        -5.4665   11.7154   27.1317 C.3         1 DAO      -0.0653
     15 H1         -0.8724   11.3530   18.3027 H           1 DAO       0.0430
     16 H2         -2.0798   10.1500   18.7361 H           1 DAO       0.0430
     17 H3         -3.3194   11.3116   16.5179 H           1 DAO       0.0283
     18 H4         -2.3325   12.6591   17.0784 H           1 DAO       0.0283
     19 H5         -4.6015   12.7775   17.9712 H           1 DAO       0.0266
     20 H6         -3.4316   12.6345   19.2712 H           1 DAO       0.0266
     21 H7         -4.5265    9.9958   18.3594 H           1 DAO       0.0265
     22 H8         -5.7805   11.0757   18.8729 H           1 DAO       0.0265
     23 H9         -3.3966   10.7669   20.7621 H           1 DAO       0.0265
     24 H10        -4.4270    9.3810   20.5441 H           1 DAO       0.0265
     25 H11        -6.2186   11.6004   21.0456 H           1 DAO       0.0265
     26 H12        -4.8731   11.8362   22.1206 H           1 DAO       0.0265
     27 H13        -6.2112    9.0891   21.9608 H           1 DAO       0.0265
     28 H14        -7.0336   10.3817   22.7968 H           1 DAO       0.0265
     29 H15        -4.2540    9.2938   23.5142 H           1 DAO       0.0265
     30 H16        -5.7867    8.9368   24.3148 H           1 DAO       0.0265
     31 H17        -5.8762   11.6290   24.5851 H           1 DAO       0.0265
     32 H18        -4.1295   11.4852   24.4080 H           1 DAO       0.0265
     33 H19        -3.8387   10.4457   26.4768 H           1 DAO       0.0263
     34 H20        -5.4279    9.6750   26.4677 H           1 DAO       0.0263
     35 H21        -5.3565   11.4411   28.1819 H           1 DAO       0.0230
     36 H22        -6.5283   11.8531   26.9159 H           1 DAO       0.0230
     37 H23        -4.9394   12.6538   26.9509 H           1 DAO       0.0230
@<TRIPOS>BOND
     1     1     3  ar
     2     3     2  ar
     3     3     4   1
     4     4     5   1
     5     5     6   1
     6     6     7   1
     7     7     8   1
     8     8     9   1
     9     9    10   1
    10    10    11   1
    11    11    12   1
    12    12    13   1
    13    13    14   1
    14     4    15   1
    15     4    16   1
    16     5    17   1
    17     5    18   1
    18     6    19   1
    19     6    20   1
    20     7    21   1
    21     7    22   1
    22     8    23   1
    23     8    24   1
    24     9    25   1
    25     9    26   1
    26    10    27   1
    27    10    28   1
    28    11    29   1
    29    11    30   1
    30    12    31   1
    31    12    32   1
    32    13    33   1
    33    13    34   1
    34    14    35   1
    35    14    36   1
    36    14    37   1
@<TRIPOS>SUBSTRUCTURE
     1  DAO      3

