@<TRIPOS>MOLECULE
3ueu_ligand_025
    37    36
SMALL
GAST_HUCK
****
This file was generated by PARSER (from files_GN.cpp)

@<TRIPOS>ATOM
      1 O1         -3.6490    3.8409   17.2525 O.co2       1 DAO      -0.5690
      2 O2         -5.7060    4.7982   16.7174 O.co2       1 DAO      -0.5690
      3 C1         -4.3843    4.9535   16.9886 C.2         1 DAO       0.0348
      4 C2         -3.7482    6.2775   16.9474 C.3         1 DAO       0.0002
      5 C3         -3.0200    6.6587   18.2711 C.3         1 DAO      -0.0414
      6 C4         -2.2228    8.0018   18.1694 C.3         1 DAO      -0.0516
      7 C5         -2.4750    9.0222   19.3303 C.3         1 DAO      -0.0530
      8 C6         -2.9564   10.4342   18.8576 C.3         1 DAO      -0.0531
      9 C7         -3.6207   11.2773   19.9840 C.3         1 DAO      -0.0531
     10 C8         -5.0810   10.8210   20.3046 C.3         1 DAO      -0.0531
     11 C9         -5.6747   11.3595   21.6462 C.3         1 DAO      -0.0531
     12 C10        -6.2447   10.2623   22.6000 C.3         1 DAO      -0.0533
     13 C11        -5.1973    9.5370   23.4965 C.3         1 DAO      -0.0559
     14 C12        -4.0634    8.8177   22.7295 C.3         1 DAO      -0.0653
     15 H1         -4.5222    7.0300   16.7478 H           1 DAO       0.0430
     16 H2         -3.0331    6.2960   16.1184 H           1 DAO       0.0430
     17 H3         -2.3319    5.8508   18.5389 H           1 DAO       0.0283
     18 H4         -3.7830    6.7040   19.0526 H           1 DAO       0.0283
     19 H5         -2.4347    8.4894   17.2100 H           1 DAO       0.0266
     20 H6         -1.1529    7.7643   18.1507 H           1 DAO       0.0266
     21 H7         -1.5498    9.1491   19.9074 H           1 DAO       0.0265
     22 H8         -3.2144    8.6142   20.0259 H           1 DAO       0.0265
     23 H9         -3.6687   10.3279   18.0317 H           1 DAO       0.0265
     24 H10        -2.0863   10.9801   18.4797 H           1 DAO       0.0265
     25 H11        -3.6580   12.3224   19.6602 H           1 DAO       0.0265
     26 H12        -3.0018   11.2270   20.8878 H           1 DAO       0.0265
     27 H13        -5.1195    9.7283   20.3140 H           1 DAO       0.0265
     28 H14        -5.7267   11.1483   19.4782 H           1 DAO       0.0265
     29 H15        -6.5027   12.0358   21.4042 H           1 DAO       0.0265
     30 H16        -4.9345   11.9503   22.1962 H           1 DAO       0.0265
     31 H17        -6.8066    9.5145   22.0268 H           1 DAO       0.0265
     32 H18        -6.9616   10.7427   23.2727 H           1 DAO       0.0265
     33 H19        -5.7302    8.7900   24.0946 H           1 DAO       0.0263
     34 H20        -4.7543   10.2598   24.1906 H           1 DAO       0.0263
     35 H21        -3.4999    8.1768   23.4155 H           1 DAO       0.0230
     36 H22        -3.3736    9.5543   22.3043 H           1 DAO       0.0230
     37 H23        -4.4754    8.1971   21.9256 H           1 DAO       0.0230
@<TRIPOS>BOND
     1     1     3  ar
     2     3     2  ar
     3     3     4   1
     4     4     5   1
     5     5     6   1
     6     6     7   1
     7     7     8   1
     8     8     9   1
     9     9    10   1
    10    10    11   1
    11    11    12   1
    12    12    13   1
    13    13    14   1
    14     4    15   1
    15     4    16   1
    16     5    17   1
    17     5    18   1
    18     6    19   1
    19     6    20   1
    20     7    21   1
    21     7    22   1
    22     8    23   1
    23     8    24   1
    24     9    25   1
    25     9    26   1
    26    10    27   1
    27    10    28   1
    28    11    29   1
    29    11    30   1
    30    12    31   1
    31    12    32   1
    32    13    33   1
    33    13    34   1
    34    14    35   1
    35    14    36   1
    36    14    37   1
@<TRIPOS>SUBSTRUCTURE
     1  DAO      3

