@<TRIPOS>MOLECULE
3ueu_ligand_006
    37    36
SMALL
GAST_HUCK
****
This file was generated by PARSER (from files_GN.cpp)

@<TRIPOS>ATOM
      1 O1         -4.6466   13.2185   17.9912 O.co2       1 DAO      -0.5690
      2 O2         -3.4816   15.1294   18.6415 O.co2       1 DAO      -0.5690
      3 C1         -3.4685   13.8782   18.1154 C.2         1 DAO       0.0348
      4 C2         -2.2125   13.2399   17.6975 C.3         1 DAO       0.0002
      5 C3         -1.1811   13.1144   18.8536 C.3         1 DAO      -0.0414
      6 C4         -0.4328   11.7388   18.9524 C.3         1 DAO      -0.0516
      7 C5         -1.0828   10.7095   19.9261 C.3         1 DAO      -0.0530
      8 C6         -2.0302    9.6701   19.2479 C.3         1 DAO      -0.0531
      9 C7         -2.9447    8.8844   20.2417 C.3         1 DAO      -0.0531
     10 C8         -3.9018    9.8164   21.0362 C.3         1 DAO      -0.0531
     11 C9         -4.6470    9.1283   22.2181 C.3         1 DAO      -0.0531
     12 C10        -5.1524   10.1330   23.2938 C.3         1 DAO      -0.0533
     13 C11        -6.2002   11.1775   22.7965 C.3         1 DAO      -0.0559
     14 C12        -6.0868   12.5391   23.5328 C.3         1 DAO      -0.0653
     15 H1         -1.7735   13.8401   16.8983 H           1 DAO       0.0430
     16 H2         -2.4371   12.2613   17.2786 H           1 DAO       0.0430
     17 H3         -1.6609   13.3211   19.8217 H           1 DAO       0.0283
     18 H4         -0.4319   13.9027   18.7225 H           1 DAO       0.0283
     19 H5          0.5767   11.9276   19.3365 H           1 DAO       0.0266
     20 H6         -0.3140   11.2877   17.9653 H           1 DAO       0.0266
     21 H7         -1.6209   11.2591   20.6991 H           1 DAO       0.0265
     22 H8         -0.2942   10.1453   20.4353 H           1 DAO       0.0265
     23 H9         -1.4167    8.9466   18.6981 H           1 DAO       0.0265
     24 H10        -2.6836   10.1548   18.5205 H           1 DAO       0.0265
     25 H11        -2.3167    8.3042   20.9318 H           1 DAO       0.0265
     26 H12        -3.5453    8.1686   19.6648 H           1 DAO       0.0265
     27 H13        -4.6428   10.2161   20.3293 H           1 DAO       0.0265
     28 H14        -3.3206   10.6599   21.4290 H           1 DAO       0.0265
     29 H15        -3.9491    8.4319   22.7038 H           1 DAO       0.0265
     30 H16        -5.4854    8.5453   21.8225 H           1 DAO       0.0265
     31 H17        -4.2724   10.6303   23.7153 H           1 DAO       0.0265
     32 H18        -5.5904    9.5456   24.1042 H           1 DAO       0.0265
     33 H19        -7.2029   10.7694   22.9370 H           1 DAO       0.0263
     34 H20        -6.0759   11.3738   21.7256 H           1 DAO       0.0263
     35 H21        -6.8514   13.2223   23.1544 H           1 DAO       0.0230
     36 H22        -5.1035   12.9764   23.3499 H           1 DAO       0.0230
     37 H23        -6.2289   12.4017   24.6092 H           1 DAO       0.0230
@<TRIPOS>BOND
     1     1     3  ar
     2     3     2  ar
     3     3     4   1
     4     4     5   1
     5     5     6   1
     6     6     7   1
     7     7     8   1
     8     8     9   1
     9     9    10   1
    10    10    11   1
    11    11    12   1
    12    12    13   1
    13    13    14   1
    14     4    15   1
    15     4    16   1
    16     5    17   1
    17     5    18   1
    18     6    19   1
    19     6    20   1
    20     7    21   1
    21     7    22   1
    22     8    23   1
    23     8    24   1
    24     9    25   1
    25     9    26   1
    26    10    27   1
    27    10    28   1
    28    11    29   1
    29    11    30   1
    30    12    31   1
    31    12    32   1
    32    13    33   1
    33    13    34   1
    34    14    35   1
    35    14    36   1
    36    14    37   1
@<TRIPOS>SUBSTRUCTURE
     1  DAO      3

