@<TRIPOS>MOLECULE
3ueu_ligand_011
    37    36
SMALL
GAST_HUCK
****
This file was generated by PARSER (from files_GN.cpp)

@<TRIPOS>ATOM
      1 O1          1.9566    5.0267   20.9237 O.co2       1 DAO      -0.5690
      2 O2          0.8499    3.8071   19.2804 O.co2       1 DAO      -0.5690
      3 C1          1.0778    4.9864   19.8966 C.2         1 DAO       0.0348
      4 C2          0.4588    6.2201   19.3901 C.3         1 DAO       0.0002
      5 C3         -1.0020    6.0504   18.8856 C.3         1 DAO      -0.0414
      6 C4         -1.9636    5.1486   19.7157 C.3         1 DAO      -0.0516
      7 C5         -2.2712    5.6012   21.1718 C.3         1 DAO      -0.0530
      8 C6         -2.4469    7.1246   21.4069 C.3         1 DAO      -0.0531
      9 C7         -3.6847    7.7654   20.7093 C.3         1 DAO      -0.0531
     10 C8         -4.0571    9.1715   21.2577 C.3         1 DAO      -0.0531
     11 C9         -4.8573    9.1265   22.5939 C.3         1 DAO      -0.0531
     12 C10        -4.9775   10.4902   23.3197 C.3         1 DAO      -0.0533
     13 C11        -6.1101   11.4034   22.7780 C.3         1 DAO      -0.0559
     14 C12        -6.1286   12.7704   23.4940 C.3         1 DAO      -0.0653
     15 H1          1.0743    6.5808   18.5606 H           1 DAO       0.0430
     16 H2          0.4884    6.9901   20.1662 H           1 DAO       0.0430
     17 H3         -0.9673    5.6478   17.8700 H           1 DAO       0.0283
     18 H4         -1.4433    7.0459   18.8088 H           1 DAO       0.0283
     19 H5         -1.5531    4.1344   19.7539 H           1 DAO       0.0266
     20 H6         -2.9083    5.0714   19.1685 H           1 DAO       0.0266
     21 H7         -1.4722    5.2477   21.8274 H           1 DAO       0.0265
     22 H8         -3.1854    5.0986   21.4996 H           1 DAO       0.0265
     23 H9         -1.5471    7.6525   21.0794 H           1 DAO       0.0265
     24 H10        -2.5216    7.2648   22.4876 H           1 DAO       0.0265
     25 H11        -4.5442    7.0974   20.8008 H           1 DAO       0.0265
     26 H12        -3.4635    7.8642   19.6425 H           1 DAO       0.0265
     27 H13        -4.6695    9.6767   20.5073 H           1 DAO       0.0265
     28 H14        -3.1461    9.7626   21.3835 H           1 DAO       0.0265
     29 H15        -4.3642    8.4350   23.2828 H           1 DAO       0.0265
     30 H16        -5.8590    8.7364   22.3936 H           1 DAO       0.0265
     31 H17        -4.0135   11.0045   23.2668 H           1 DAO       0.0265
     32 H18        -5.1842   10.2918   24.3776 H           1 DAO       0.0265
     33 H19        -7.0695   10.9073   22.9305 H           1 DAO       0.0263
     34 H20        -5.9790   11.5756   21.7085 H           1 DAO       0.0263
     35 H21        -6.9561   13.3797   23.1243 H           1 DAO       0.0230
     36 H22        -5.1960   13.3048   23.3089 H           1 DAO       0.0230
     37 H23        -6.2477   12.6308   24.5714 H           1 DAO       0.0230
@<TRIPOS>BOND
     1     1     3  ar
     2     3     2  ar
     3     3     4   1
     4     4     5   1
     5     5     6   1
     6     6     7   1
     7     7     8   1
     8     8     9   1
     9     9    10   1
    10    10    11   1
    11    11    12   1
    12    12    13   1
    13    13    14   1
    14     4    15   1
    15     4    16   1
    16     5    17   1
    17     5    18   1
    18     6    19   1
    19     6    20   1
    20     7    21   1
    21     7    22   1
    22     8    23   1
    23     8    24   1
    24     9    25   1
    25     9    26   1
    26    10    27   1
    27    10    28   1
    28    11    29   1
    29    11    30   1
    30    12    31   1
    31    12    32   1
    32    13    33   1
    33    13    34   1
    34    14    35   1
    35    14    36   1
    36    14    37   1
@<TRIPOS>SUBSTRUCTURE
     1  DAO      3

