@<TRIPOS>MOLECULE
3ueu_ligand_016
    37    36
SMALL
GAST_HUCK
****
This file was generated by PARSER (from files_GN.cpp)

@<TRIPOS>ATOM
      1 O1         -0.5945    6.7552   17.6985 O.co2       1 DAO      -0.5690
      2 O2         -0.9108    4.7134   16.6143 O.co2       1 DAO      -0.5690
      3 C1         -1.4344    5.8722   17.1092 C.2         1 DAO       0.0348
      4 C2         -2.7587    6.3194   16.6176 C.3         1 DAO       0.0002
      5 C3         -3.5882    7.1749   17.6349 C.3         1 DAO      -0.0414
      6 C4         -3.1023    8.6268   17.9464 C.3         1 DAO      -0.0516
      7 C5         -2.0912    8.8558   19.1090 C.3         1 DAO      -0.0530
      8 C6         -2.0734    7.7951   20.2531 C.3         1 DAO      -0.0531
      9 C7         -3.3053    7.7495   21.2058 C.3         1 DAO      -0.0531
     10 C8         -3.9391    9.1405   21.5354 C.3         1 DAO      -0.0531
     11 C9         -4.7255    9.1661   22.8811 C.3         1 DAO      -0.0531
     12 C10        -4.8739   10.5845   23.5028 C.3         1 DAO      -0.0533
     13 C11        -5.9995   11.4491   22.8744 C.3         1 DAO      -0.0559
     14 C12        -6.1341   12.8168   23.5818 C.3         1 DAO      -0.0653
     15 H1         -3.3602    5.4140   16.4144 H           1 DAO       0.0430
     16 H2         -2.6397    6.8678   15.6632 H           1 DAO       0.0430
     17 H3         -3.7203    6.6154   18.5673 H           1 DAO       0.0283
     18 H4         -4.5816    7.3005   17.1818 H           1 DAO       0.0283
     19 H5         -3.9926    9.2253   18.2008 H           1 DAO       0.0266
     20 H6         -2.6556    9.0652   17.0360 H           1 DAO       0.0266
     21 H7         -2.2947    9.8423   19.5597 H           1 DAO       0.0265
     22 H8         -1.0807    8.9060   18.6924 H           1 DAO       0.0265
     23 H9         -1.1809    7.9877   20.8630 H           1 DAO       0.0265
     24 H10        -1.9491    6.8023   19.8048 H           1 DAO       0.0265
     25 H11        -2.9636    7.2818   22.1345 H           1 DAO       0.0265
     26 H12        -4.0800    7.1027   20.7766 H           1 DAO       0.0265
     27 H13        -4.6120    9.4185   20.7141 H           1 DAO       0.0265
     28 H14        -3.1474    9.8979   21.5897 H           1 DAO       0.0265
     29 H15        -4.1854    8.5439   23.6085 H           1 DAO       0.0265
     30 H16        -5.7168    8.7228   22.7348 H           1 DAO       0.0265
     31 H17        -3.9148   11.1069   23.4231 H           1 DAO       0.0265
     32 H18        -5.0938   10.4592   24.5668 H           1 DAO       0.0265
     33 H19        -6.9497   10.9148   22.9523 H           1 DAO       0.0263
     34 H20        -5.7922   11.6242   21.8142 H           1 DAO       0.0263
     35 H21        -6.9758   13.3721   23.1651 H           1 DAO       0.0230
     36 H22        -5.2277   13.4069   23.4406 H           1 DAO       0.0230
     37 H23        -6.3011   12.6747   24.6505 H           1 DAO       0.0230
@<TRIPOS>BOND
     1     1     3  ar
     2     3     2  ar
     3     3     4   1
     4     4     5   1
     5     5     6   1
     6     6     7   1
     7     7     8   1
     8     8     9   1
     9     9    10   1
    10    10    11   1
    11    11    12   1
    12    12    13   1
    13    13    14   1
    14     4    15   1
    15     4    16   1
    16     5    17   1
    17     5    18   1
    18     6    19   1
    19     6    20   1
    20     7    21   1
    21     7    22   1
    22     8    23   1
    23     8    24   1
    24     9    25   1
    25     9    26   1
    26    10    27   1
    27    10    28   1
    28    11    29   1
    29    11    30   1
    30    12    31   1
    31    12    32   1
    32    13    33   1
    33    13    34   1
    34    14    35   1
    35    14    36   1
    36    14    37   1
@<TRIPOS>SUBSTRUCTURE
     1  DAO      3

