@<TRIPOS>MOLECULE
3ueu_ligand_031
    37    36
SMALL
GAST_HUCK
****
This file was generated by PARSER (from files_GN.cpp)

@<TRIPOS>ATOM
      1 O1         -2.7301    6.1063   22.3757 O.co2       1 DAO      -0.5690
      2 O2         -3.9598    4.7452   20.9438 O.co2       1 DAO      -0.5690
      3 C1         -2.8040    5.3884   21.2305 C.2         1 DAO       0.0348
      4 C2         -1.6326    5.2335   20.3488 C.3         1 DAO       0.0002
      5 C3         -1.6789    6.1624   19.0970 C.3         1 DAO      -0.0414
      6 C4         -1.5135    7.6910   19.3750 C.3         1 DAO      -0.0516
      7 C5         -2.6768    8.3574   20.1666 C.3         1 DAO      -0.0530
      8 C6         -2.7501    9.9029   19.9848 C.3         1 DAO      -0.0531
      9 C7         -4.0239   10.5472   20.6000 C.3         1 DAO      -0.0531
     10 C8         -4.0116   10.7417   22.1464 C.3         1 DAO      -0.0531
     11 C9         -5.4496   10.9035   22.7203 C.3         1 DAO      -0.0531
     12 C10        -5.5146   11.7503   24.0171 C.3         1 DAO      -0.0533
     13 C11        -4.9837   11.0353   25.2880 C.3         1 DAO      -0.0559
     14 C12        -5.4346   11.7198   26.5961 C.3         1 DAO      -0.0653
     15 H1         -1.6110    4.1838   20.0122 H           1 DAO       0.0430
     16 H2         -0.7067    5.4188   20.9016 H           1 DAO       0.0430
     17 H3         -2.6071    5.9922   18.5408 H           1 DAO       0.0283
     18 H4         -0.8538    5.8627   18.4375 H           1 DAO       0.0283
     19 H5         -1.4302    8.1791   18.3964 H           1 DAO       0.0266
     20 H6         -0.5683    7.8534   19.9076 H           1 DAO       0.0266
     21 H7         -2.5363    8.1377   21.2273 H           1 DAO       0.0265
     22 H8         -3.6195    7.9019   19.8354 H           1 DAO       0.0265
     23 H9         -2.7619   10.1202   18.9059 H           1 DAO       0.0265
     24 H10        -1.8520   10.3607   20.4140 H           1 DAO       0.0265
     25 H11        -4.8891    9.9334   20.3233 H           1 DAO       0.0265
     26 H12        -4.1529   11.5305   20.1364 H           1 DAO       0.0265
     27 H13        -3.4115   11.6319   22.3814 H           1 DAO       0.0265
     28 H14        -3.5493    9.8662   22.6202 H           1 DAO       0.0265
     29 H15        -5.8731    9.9097   22.9179 H           1 DAO       0.0265
     30 H16        -6.0904   11.3858   21.9693 H           1 DAO       0.0265
     31 H17        -6.5608   12.0348   24.1795 H           1 DAO       0.0265
     32 H18        -4.9421   12.6697   23.8597 H           1 DAO       0.0265
     33 H19        -3.8892   11.0226   25.2718 H           1 DAO       0.0263
     34 H20        -5.3318    9.9965   25.3049 H           1 DAO       0.0263
     35 H21        -5.0286   11.1825   27.4566 H           1 DAO       0.0230
     36 H22        -6.5253   11.7195   26.6726 H           1 DAO       0.0230
     37 H23        -5.0771   12.7496   26.6346 H           1 DAO       0.0230
@<TRIPOS>BOND
     1     1     3  ar
     2     3     2  ar
     3     3     4   1
     4     4     5   1
     5     5     6   1
     6     6     7   1
     7     7     8   1
     8     8     9   1
     9     9    10   1
    10    10    11   1
    11    11    12   1
    12    12    13   1
    13    13    14   1
    14     4    15   1
    15     4    16   1
    16     5    17   1
    17     5    18   1
    18     6    19   1
    19     6    20   1
    20     7    21   1
    21     7    22   1
    22     8    23   1
    23     8    24   1
    24     9    25   1
    25     9    26   1
    26    10    27   1
    27    10    28   1
    28    11    29   1
    29    11    30   1
    30    12    31   1
    31    12    32   1
    32    13    33   1
    33    13    34   1
    34    14    35   1
    35    14    36   1
    36    14    37   1
@<TRIPOS>SUBSTRUCTURE
     1  DAO      3

