@<TRIPOS>MOLECULE
3ueu_ligand_008
    37    36
SMALL
GAST_HUCK
****
This file was generated by PARSER (from files_GN.cpp)

@<TRIPOS>ATOM
      1 O1         -5.8555    5.4169   17.0924 O.co2       1 DAO      -0.5690
      2 O2         -6.4697    4.2061   18.9605 O.co2       1 DAO      -0.5690
      3 C1         -5.5535    4.9762   18.3314 C.2         1 DAO       0.0348
      4 C2         -4.4267    5.5228   19.1190 C.3         1 DAO       0.0002
      5 C3         -3.5975    6.6353   18.4096 C.3         1 DAO      -0.0414
      6 C4         -2.6320    7.4768   19.2970 C.3         1 DAO      -0.0516
      7 C5         -3.2581    8.6354   20.1283 C.3         1 DAO      -0.0530
      8 C6         -3.9556    8.2067   21.4486 C.3         1 DAO      -0.0531
      9 C7         -4.3694    9.3422   22.4141 C.3         1 DAO      -0.0531
     10 C8         -5.0752   10.5567   21.7421 C.3         1 DAO      -0.0531
     11 C9         -6.1175   11.3101   22.6106 C.3         1 DAO      -0.0531
     12 C10        -5.5654   12.1020   23.8278 C.3         1 DAO      -0.0533
     13 C11        -5.0326   11.2367   25.0098 C.3         1 DAO      -0.0559
     14 C12        -5.3934   11.7818   26.4092 C.3         1 DAO      -0.0653
     15 H1         -3.7556    4.7061   19.4138 H           1 DAO       0.0430
     16 H2         -4.8733    5.8912   20.0343 H           1 DAO       0.0430
     17 H3         -4.2577    7.3236   17.8813 H           1 DAO       0.0283
     18 H4         -2.9930    6.1280   17.6570 H           1 DAO       0.0283
     19 H5         -1.9138    7.9448   18.6137 H           1 DAO       0.0266
     20 H6         -2.0588    6.8165   19.9539 H           1 DAO       0.0266
     21 H7         -3.9657    9.1730   19.4914 H           1 DAO       0.0265
     22 H8         -2.4629    9.3367   20.3925 H           1 DAO       0.0265
     23 H9         -3.3030    7.5115   21.9900 H           1 DAO       0.0265
     24 H10        -4.8785    7.6908   21.2078 H           1 DAO       0.0265
     25 H11        -3.4848    9.6905   22.9428 H           1 DAO       0.0265
     26 H12        -5.0389    8.8821   23.1417 H           1 DAO       0.0265
     27 H13        -5.6141   10.2117   20.8553 H           1 DAO       0.0265
     28 H14        -4.3115   11.2635   21.4047 H           1 DAO       0.0265
     29 H15        -6.8881   10.6112   22.9452 H           1 DAO       0.0265
     30 H16        -6.6163   12.0321   21.9532 H           1 DAO       0.0265
     31 H17        -6.3804   12.7355   24.1830 H           1 DAO       0.0265
     32 H18        -4.7754   12.7694   23.4837 H           1 DAO       0.0265
     33 H19        -3.9440   11.1617   24.9392 H           1 DAO       0.0263
     34 H20        -5.4405   10.2292   24.9646 H           1 DAO       0.0263
     35 H21        -5.0015   11.1115   27.1817 H           1 DAO       0.0230
     36 H22        -6.4811   11.8373   26.5219 H           1 DAO       0.0230
     37 H23        -4.9647   12.7753   26.5575 H           1 DAO       0.0230
@<TRIPOS>BOND
     1     1     3  ar
     2     3     2  ar
     3     3     4   1
     4     4     5   1
     5     5     6   1
     6     6     7   1
     7     7     8   1
     8     8     9   1
     9     9    10   1
    10    10    11   1
    11    11    12   1
    12    12    13   1
    13    13    14   1
    14     4    15   1
    15     4    16   1
    16     5    17   1
    17     5    18   1
    18     6    19   1
    19     6    20   1
    20     7    21   1
    21     7    22   1
    22     8    23   1
    23     8    24   1
    24     9    25   1
    25     9    26   1
    26    10    27   1
    27    10    28   1
    28    11    29   1
    29    11    30   1
    30    12    31   1
    31    12    32   1
    32    13    33   1
    33    13    34   1
    34    14    35   1
    35    14    36   1
    36    14    37   1
@<TRIPOS>SUBSTRUCTURE
     1  DAO      3

