@<TRIPOS>MOLECULE
3ueu_ligand_007
    37    36
SMALL
GAST_HUCK
****
This file was generated by PARSER (from files_GN.cpp)

@<TRIPOS>ATOM
      1 O1         -7.6058    1.5492   18.3645 O.co2       1 DAO      -0.5690
      2 O2         -5.8915    0.9412   19.7795 O.co2       1 DAO      -0.5690
      3 C1         -6.7808    1.8780   19.3790 C.2         1 DAO       0.0348
      4 C2         -6.5534    3.2983   19.6984 C.3         1 DAO       0.0002
      5 C3         -5.5149    3.9798   18.7640 C.3         1 DAO      -0.0414
      6 C4         -4.0304    3.9271   19.2322 C.3         1 DAO      -0.0516
      7 C5         -3.5790    4.8875   20.3683 C.3         1 DAO      -0.0530
      8 C6         -4.0850    6.3499   20.2323 C.3         1 DAO      -0.0531
      9 C7         -3.4050    7.3488   21.2076 C.3         1 DAO      -0.0531
     10 C8         -4.2609    8.6324   21.4490 C.3         1 DAO      -0.0531
     11 C9         -4.0296    9.3356   22.8251 C.3         1 DAO      -0.0531
     12 C10        -5.3453    9.7668   23.5395 C.3         1 DAO      -0.0533
     13 C11        -6.1073   10.9416   22.8542 C.3         1 DAO      -0.0559
     14 C12        -5.8199   12.3184   23.4880 C.3         1 DAO      -0.0653
     15 H1         -6.2689    3.3849   20.7455 H           1 DAO       0.0430
     16 H2         -7.5070    3.8179   19.6008 H           1 DAO       0.0430
     17 H3         -5.8066    5.0216   18.6308 H           1 DAO       0.0283
     18 H4         -5.5762    3.5243   17.7726 H           1 DAO       0.0283
     19 H5         -3.4051    4.1368   18.3643 H           1 DAO       0.0266
     20 H6         -3.7966    2.9071   19.5434 H           1 DAO       0.0266
     21 H7         -2.4894    4.9074   20.3931 H           1 DAO       0.0265
     22 H8         -3.9101    4.4914   21.3312 H           1 DAO       0.0265
     23 H9         -5.1581    6.3351   20.4369 H           1 DAO       0.0265
     24 H10        -3.9404    6.7006   19.2093 H           1 DAO       0.0265
     25 H11        -2.4261    7.6372   20.8170 H           1 DAO       0.0265
     26 H12        -3.2410    6.8518   22.1674 H           1 DAO       0.0265
     27 H13        -5.3151    8.3608   21.3671 H           1 DAO       0.0265
     28 H14        -4.0643    9.3357   20.6351 H           1 DAO       0.0265
     29 H15        -3.3893   10.2123   22.6814 H           1 DAO       0.0265
     30 H16        -3.4921    8.6622   23.5021 H           1 DAO       0.0265
     31 H17        -5.1060   10.0259   24.5728 H           1 DAO       0.0265
     32 H18        -6.0022    8.8914   23.5921 H           1 DAO       0.0265
     33 H19        -7.1798   10.7493   22.9298 H           1 DAO       0.0263
     34 H20        -5.8701   10.9808   21.7894 H           1 DAO       0.0263
     35 H21        -6.3916   13.0880   22.9737 H           1 DAO       0.0230
     36 H22        -4.7614   12.5597   23.4165 H           1 DAO       0.0230
     37 H23        -6.1139   12.3195   24.5377 H           1 DAO       0.0230
@<TRIPOS>BOND
     1     1     3  ar
     2     3     2  ar
     3     3     4   1
     4     4     5   1
     5     5     6   1
     6     6     7   1
     7     7     8   1
     8     8     9   1
     9     9    10   1
    10    10    11   1
    11    11    12   1
    12    12    13   1
    13    13    14   1
    14     4    15   1
    15     4    16   1
    16     5    17   1
    17     5    18   1
    18     6    19   1
    19     6    20   1
    20     7    21   1
    21     7    22   1
    22     8    23   1
    23     8    24   1
    24     9    25   1
    25     9    26   1
    26    10    27   1
    27    10    28   1
    28    11    29   1
    29    11    30   1
    30    12    31   1
    31    12    32   1
    32    13    33   1
    33    13    34   1
    34    14    35   1
    35    14    36   1
    36    14    37   1
@<TRIPOS>SUBSTRUCTURE
     1  DAO      3

