@<TRIPOS>MOLECULE
3ueu_ligand_018
    37    36
SMALL
GAST_HUCK
****
This file was generated by PARSER (from files_GN.cpp)

@<TRIPOS>ATOM
      1 O1         -9.2586   -1.0015   17.6931 O.co2       1 DAO      -0.5690
      2 O2         -8.3876    1.0270   17.0099 O.co2       1 DAO      -0.5690
      3 C1         -9.0630    0.3196   17.9461 C.2         1 DAO       0.0348
      4 C2         -9.9916    1.0250   18.8571 C.3         1 DAO       0.0002
      5 C3         -9.3641    1.4054   20.2268 C.3         1 DAO      -0.0414
      6 C4         -8.4924    2.6996   20.2432 C.3         1 DAO      -0.0516
      7 C5         -6.9920    2.5128   19.8549 C.3         1 DAO      -0.0530
      8 C6         -6.1256    3.7811   20.1565 C.3         1 DAO      -0.0531
      9 C7         -5.7235    4.6289   18.9105 C.3         1 DAO      -0.0531
     10 C8         -4.8649    3.8495   17.8682 C.3         1 DAO      -0.0531
     11 C9         -4.5989    4.6798   16.5797 C.3         1 DAO      -0.0531
     12 C10        -3.1815    4.4702   15.9619 C.3         1 DAO      -0.0533
     13 C11        -2.2329    5.6933   16.0451 C.3         1 DAO      -0.0559
     14 C12        -1.4467    5.8307   17.3670 C.3         1 DAO      -0.0653
     15 H1        -10.8523    0.3709   19.0449 H           1 DAO       0.0430
     16 H2        -10.3774    1.9301   18.3683 H           1 DAO       0.0430
     17 H3         -8.7917    0.5584   20.6268 H           1 DAO       0.0283
     18 H4        -10.1975    1.5753   20.9172 H           1 DAO       0.0283
     19 H5         -8.5248    3.0899   21.2698 H           1 DAO       0.0266
     20 H6         -8.9436    3.4574   19.5877 H           1 DAO       0.0266
     21 H7         -6.9169    2.2623   18.7895 H           1 DAO       0.0265
     22 H8         -6.5830    1.6618   20.4244 H           1 DAO       0.0265
     23 H9         -5.2154    3.4740   20.6806 H           1 DAO       0.0265
     24 H10        -6.6683    4.4345   20.8534 H           1 DAO       0.0265
     25 H11        -5.1429    5.4878   19.2606 H           1 DAO       0.0265
     26 H12        -6.6300    5.0248   18.4484 H           1 DAO       0.0265
     27 H13        -5.3894    2.9265   17.5967 H           1 DAO       0.0265
     28 H14        -3.9149    3.5902   18.3545 H           1 DAO       0.0265
     29 H15        -4.7578    5.7435   16.7869 H           1 DAO       0.0265
     30 H16        -5.3557    4.3800   15.8475 H           1 DAO       0.0265
     31 H17        -3.3151    4.2472   14.9030 H           1 DAO       0.0265
     32 H18        -2.6944    3.5938   16.4049 H           1 DAO       0.0265
     33 H19        -2.8117    6.6128   15.8832 H           1 DAO       0.0263
     34 H20        -1.5042    5.6224   15.2289 H           1 DAO       0.0263
     35 H21        -0.8504    6.7489   17.3516 H           1 DAO       0.0230
     36 H22        -0.7645    4.9786   17.4969 H           1 DAO       0.0230
     37 H23        -2.1240    5.8796   18.2264 H           1 DAO       0.0230
@<TRIPOS>BOND
     1     1     3  ar
     2     3     2  ar
     3     3     4   1
     4     4     5   1
     5     5     6   1
     6     6     7   1
     7     7     8   1
     8     8     9   1
     9     9    10   1
    10    10    11   1
    11    11    12   1
    12    12    13   1
    13    13    14   1
    14     4    15   1
    15     4    16   1
    16     5    17   1
    17     5    18   1
    18     6    19   1
    19     6    20   1
    20     7    21   1
    21     7    22   1
    22     8    23   1
    23     8    24   1
    24     9    25   1
    25     9    26   1
    26    10    27   1
    27    10    28   1
    28    11    29   1
    29    11    30   1
    30    12    31   1
    31    12    32   1
    32    13    33   1
    33    13    34   1
    34    14    35   1
    35    14    36   1
    36    14    37   1
@<TRIPOS>SUBSTRUCTURE
     1  DAO      3

