@<TRIPOS>MOLECULE
3ueu_ligand_002
    37    36
SMALL
GAST_HUCK
****
This file was generated by PARSER (from files_GN.cpp)

@<TRIPOS>ATOM
      1 O1         -1.0438    5.6385   16.9774 O.co2       1 DAO      -0.5690
      2 O2          0.6659    6.3394   18.3796 O.co2       1 DAO      -0.5690
      3 C1         -0.6224    6.4187   17.9995 C.2         1 DAO       0.0348
      4 C2         -1.5576    7.3373   18.6866 C.3         1 DAO       0.0002
      5 C3         -1.4928    7.1944   20.2318 C.3         1 DAO      -0.0414
      6 C4         -2.8131    7.5093   20.9843 C.3         1 DAO      -0.0516
      7 C5         -3.3989    8.9232   20.7238 C.3         1 DAO      -0.0530
      8 C6         -4.4418    9.2949   21.8071 C.3         1 DAO      -0.0531
      9 C7         -5.0700   10.6981   21.5826 C.3         1 DAO      -0.0531
     10 C8         -6.0439   11.1497   22.7052 C.3         1 DAO      -0.0531
     11 C9         -5.3948   11.8063   23.9627 C.3         1 DAO      -0.0531
     12 C10        -4.6422   10.8314   24.9106 C.3         1 DAO      -0.0533
     13 C11        -4.4980   11.3293   26.3754 C.3         1 DAO      -0.0559
     14 C12        -5.8017   11.2379   27.2069 C.3         1 DAO      -0.0653
     15 H1         -2.5745    7.1467   18.3327 H           1 DAO       0.0430
     16 H2         -1.2888    8.3616   18.4125 H           1 DAO       0.0430
     17 H3         -0.7094    7.8600   20.6108 H           1 DAO       0.0283
     18 H4         -1.2094    6.1698   20.4985 H           1 DAO       0.0283
     19 H5         -2.5986    7.4136   22.0513 H           1 DAO       0.0266
     20 H6         -3.5615    6.7530   20.7386 H           1 DAO       0.0266
     21 H7         -3.8662    8.9540   19.7371 H           1 DAO       0.0265
     22 H8         -2.5857    9.6530   20.7316 H           1 DAO       0.0265
     23 H9         -3.9424    9.2726   22.7772 H           1 DAO       0.0265
     24 H10        -5.2382    8.5434   21.8091 H           1 DAO       0.0265
     25 H11        -5.6246   10.6594   20.6429 H           1 DAO       0.0265
     26 H12        -4.2859   11.4497   21.4634 H           1 DAO       0.0265
     27 H13        -6.6682   10.3153   23.0248 H           1 DAO       0.0265
     28 H14        -6.7217   11.8944   22.2803 H           1 DAO       0.0265
     29 H15        -6.1954   12.2995   24.5245 H           1 DAO       0.0265
     30 H16        -4.7028   12.5925   23.6409 H           1 DAO       0.0265
     31 H17        -3.6314   10.6941   24.5244 H           1 DAO       0.0265
     32 H18        -5.1370    9.8569   24.9186 H           1 DAO       0.0265
     33 H19        -4.1410   12.3591   26.3837 H           1 DAO       0.0263
     34 H20        -3.7454   10.7175   26.8796 H           1 DAO       0.0263
     35 H21        -5.6145   11.5928   28.2238 H           1 DAO       0.0230
     36 H22        -6.1512   10.2013   27.2568 H           1 DAO       0.0230
     37 H23        -6.5907   11.8579   26.7658 H           1 DAO       0.0230
@<TRIPOS>BOND
     1     1     3  ar
     2     3     2  ar
     3     3     4   1
     4     4     5   1
     5     5     6   1
     6     6     7   1
     7     7     8   1
     8     8     9   1
     9     9    10   1
    10    10    11   1
    11    11    12   1
    12    12    13   1
    13    13    14   1
    14     4    15   1
    15     4    16   1
    16     5    17   1
    17     5    18   1
    18     6    19   1
    19     6    20   1
    20     7    21   1
    21     7    22   1
    22     8    23   1
    23     8    24   1
    24     9    25   1
    25     9    26   1
    26    10    27   1
    27    10    28   1
    28    11    29   1
    29    11    30   1
    30    12    31   1
    31    12    32   1
    32    13    33   1
    33    13    34   1
    34    14    35   1
    35    14    36   1
    36    14    37   1
@<TRIPOS>SUBSTRUCTURE
     1  DAO      3

