@<TRIPOS>MOLECULE
3ueu_ligand_012
    37    36
SMALL
GAST_HUCK
****
This file was generated by PARSER (from files_GN.cpp)

@<TRIPOS>ATOM
      1 O1         -1.7167   12.5622   17.5696 O.co2       1 DAO      -0.5690
      2 O2         -0.1998   11.4220   18.9168 O.co2       1 DAO      -0.5690
      3 C1         -1.0630   11.4133   17.8772 C.2         1 DAO       0.0348
      4 C2         -1.3518   10.1652   17.1514 C.3         1 DAO       0.0002
      5 C3         -1.9774    9.0534   18.0383 C.3         1 DAO      -0.0414
      6 C4         -3.3404    9.3692   18.7189 C.3         1 DAO      -0.0516
      7 C5         -3.2806   10.3860   19.9028 C.3         1 DAO      -0.0530
      8 C6         -4.5575   10.4395   20.7932 C.3         1 DAO      -0.0531
      9 C7         -4.7311    9.2200   21.7466 C.3         1 DAO      -0.0531
     10 C8         -4.1978    9.4437   23.2004 C.3         1 DAO      -0.0531
     11 C9         -5.2339   10.0391   24.2128 C.3         1 DAO      -0.0531
     12 C10        -4.9419   11.4542   24.8062 C.3         1 DAO      -0.0533
     13 C11        -4.5584   11.4824   26.3162 C.3         1 DAO      -0.0559
     14 C12        -5.7137   11.1052   27.2736 C.3         1 DAO      -0.0653
     15 H1         -0.4113    9.7906   16.7349 H           1 DAO       0.0430
     16 H2         -2.0194   10.3714   16.3095 H           1 DAO       0.0430
     17 H3         -1.2540    8.7439   18.7977 H           1 DAO       0.0283
     18 H4         -2.1288    8.1930   17.3777 H           1 DAO       0.0283
     19 H5         -3.7343    8.4142   19.0715 H           1 DAO       0.0266
     20 H6         -4.0396    9.7384   17.9633 H           1 DAO       0.0266
     21 H7         -3.1280   11.3828   19.4869 H           1 DAO       0.0265
     22 H8         -2.4286   10.1576   20.5449 H           1 DAO       0.0265
     23 H9         -5.4304   10.5261   20.1404 H           1 DAO       0.0265
     24 H10        -4.5300   11.3537   21.3942 H           1 DAO       0.0265
     25 H11        -4.2144    8.3543   21.3240 H           1 DAO       0.0265
     26 H12        -5.7903    8.9440   21.7835 H           1 DAO       0.0265
     27 H13        -3.2938   10.0528   23.1688 H           1 DAO       0.0265
     28 H14        -3.8845    8.4629   23.5716 H           1 DAO       0.0265
     29 H15        -5.3303    9.3237   25.0303 H           1 DAO       0.0265
     30 H16        -6.2166   10.0744   23.7361 H           1 DAO       0.0265
     31 H17        -5.8300   12.0856   24.6810 H           1 DAO       0.0265
     32 H18        -4.1438   11.9349   24.2416 H           1 DAO       0.0265
     33 H19        -4.2373   12.4925   26.5757 H           1 DAO       0.0263
     34 H20        -3.7121   10.8133   26.4873 H           1 DAO       0.0263
     35 H21        -5.4053   11.2785   28.3066 H           1 DAO       0.0230
     36 H22        -5.9812   10.0530   27.1710 H           1 DAO       0.0230
     37 H23        -6.5942   11.7149   27.0702 H           1 DAO       0.0230
@<TRIPOS>BOND
     1     1     3  ar
     2     3     2  ar
     3     3     4   1
     4     4     5   1
     5     5     6   1
     6     6     7   1
     7     7     8   1
     8     8     9   1
     9     9    10   1
    10    10    11   1
    11    11    12   1
    12    12    13   1
    13    13    14   1
    14     4    15   1
    15     4    16   1
    16     5    17   1
    17     5    18   1
    18     6    19   1
    19     6    20   1
    20     7    21   1
    21     7    22   1
    22     8    23   1
    23     8    24   1
    24     9    25   1
    25     9    26   1
    26    10    27   1
    27    10    28   1
    28    11    29   1
    29    11    30   1
    30    12    31   1
    31    12    32   1
    32    13    33   1
    33    13    34   1
    34    14    35   1
    35    14    36   1
    36    14    37   1
@<TRIPOS>SUBSTRUCTURE
     1  DAO      3

