@<TRIPOS>MOLECULE
3ueu_ligand_005
    37    36
SMALL
GAST_HUCK
****
This file was generated by PARSER (from files_GN.cpp)

@<TRIPOS>ATOM
      1 O1        -11.0730    2.4435   23.9076 O.co2       1 DAO      -0.5690
      2 O2         -9.5417    2.9462   22.2186 O.co2       1 DAO      -0.5690
      3 C1        -10.3531    3.3634   23.2138 C.2         1 DAO       0.0348
      4 C2        -10.3494    4.7729   23.6316 C.3         1 DAO       0.0002
      5 C3        -10.5845    5.7250   22.4115 C.3         1 DAO      -0.0414
      6 C4        -10.2580    7.2261   22.7540 C.3         1 DAO      -0.0516
      7 C5         -8.9567    7.7098   22.0419 C.3         1 DAO      -0.0530
      8 C6         -8.2623    8.9090   22.7802 C.3         1 DAO      -0.0531
      9 C7         -6.7314    8.9746   22.4553 C.3         1 DAO      -0.0531
     10 C8         -6.1120   10.3618   22.8211 C.3         1 DAO      -0.0531
     11 C9         -5.1245   10.3175   24.0214 C.3         1 DAO      -0.0531
     12 C10        -5.0050   11.6841   24.7830 C.3         1 DAO      -0.0533
     13 C11        -4.5091   11.5491   26.2479 C.3         1 DAO      -0.0559
     14 C12        -5.6130   11.0565   27.2361 C.3         1 DAO      -0.0653
     15 H1         -9.3862    4.9996   24.1020 H           1 DAO       0.0430
     16 H2        -11.1458    4.9515   24.3690 H           1 DAO       0.0430
     17 H3        -11.6483    5.6387   22.1064 H           1 DAO       0.0283
     18 H4         -9.9579    5.3958   21.5653 H           1 DAO       0.0283
     19 H5        -10.1595    7.3366   23.8522 H           1 DAO       0.0266
     20 H6        -11.1217    7.8440   22.4272 H           1 DAO       0.0266
     21 H7         -9.2394    8.0607   21.0449 H           1 DAO       0.0265
     22 H8         -8.2521    6.8719   21.9406 H           1 DAO       0.0265
     23 H9         -8.3774    8.7675   23.8624 H           1 DAO       0.0265
     24 H10        -8.7471    9.8533   22.4741 H           1 DAO       0.0265
     25 H11        -6.5629    8.7776   21.3748 H           1 DAO       0.0265
     26 H12        -6.2188    8.1852   23.0306 H           1 DAO       0.0265
     27 H13        -6.9175   11.0791   23.0545 H           1 DAO       0.0265
     28 H14        -5.5617   10.7521   21.9491 H           1 DAO       0.0265
     29 H15        -4.1158   10.0431   23.6585 H           1 DAO       0.0265
     30 H16        -5.4551    9.5356   24.7252 H           1 DAO       0.0265
     31 H17        -6.0000   12.1874   24.7994 H           1 DAO       0.0265
     32 H18        -4.3243   12.3488   24.2063 H           1 DAO       0.0265
     33 H19        -4.1609   12.5346   26.5812 H           1 DAO       0.0263
     34 H20        -3.6530   10.8597   26.2712 H           1 DAO       0.0263
     35 H21        -5.2490   11.1850   28.2472 H           1 DAO       0.0230
     36 H22        -5.8400   10.0028   27.0611 H           1 DAO       0.0230
     37 H23        -6.5244   11.6485   27.0990 H           1 DAO       0.0230
@<TRIPOS>BOND
     1     1     3  ar
     2     3     2  ar
     3     3     4   1
     4     4     5   1
     5     5     6   1
     6     6     7   1
     7     7     8   1
     8     8     9   1
     9     9    10   1
    10    10    11   1
    11    11    12   1
    12    12    13   1
    13    13    14   1
    14     4    15   1
    15     4    16   1
    16     5    17   1
    17     5    18   1
    18     6    19   1
    19     6    20   1
    20     7    21   1
    21     7    22   1
    22     8    23   1
    23     8    24   1
    24     9    25   1
    25     9    26   1
    26    10    27   1
    27    10    28   1
    28    11    29   1
    29    11    30   1
    30    12    31   1
    31    12    32   1
    32    13    33   1
    33    13    34   1
    34    14    35   1
    35    14    36   1
    36    14    37   1
@<TRIPOS>SUBSTRUCTURE
     1  DAO      3

