@<TRIPOS>MOLECULE
3ueu_ligand_019
    37    36
SMALL
GAST_HUCK
****
This file was generated by PARSER (from files_GN.cpp)

@<TRIPOS>ATOM
      1 O1         -8.5141    3.0278   20.0363 O.co2       1 DAO      -0.5690
      2 O2         -7.8454    4.6702   21.5509 O.co2       1 DAO      -0.5690
      3 C1         -8.8301    4.1063   20.8109 C.2         1 DAO       0.0348
      4 C2        -10.1672    4.7538   20.7003 C.3         1 DAO       0.0002
      5 C3        -10.8985    4.9890   22.0513 C.3         1 DAO      -0.0414
      6 C4        -10.1512    5.8042   23.1444 C.3         1 DAO      -0.0516
      7 C5        -10.0662    7.3547   22.9517 C.3         1 DAO      -0.0530
      8 C6         -8.8471    7.8771   22.1092 C.3         1 DAO      -0.0531
      9 C7         -8.0142    9.0431   22.7377 C.3         1 DAO      -0.0531
     10 C8         -6.4892    9.0305   22.3644 C.3         1 DAO      -0.0531
     11 C9         -5.5034    9.2771   23.5488 C.3         1 DAO      -0.0531
     12 C10        -5.1767   10.7587   23.8939 C.3         1 DAO      -0.0533
     13 C11        -4.7099   11.6488   22.7089 C.3         1 DAO      -0.0559
     14 C12        -3.3156   11.2989   22.1208 C.3         1 DAO      -0.0653
     15 H1        -10.8004    4.1056   20.0799 H           1 DAO       0.0430
     16 H2        -10.0663    5.7042   20.1636 H           1 DAO       0.0430
     17 H3        -11.1633    4.0133   22.4714 H           1 DAO       0.0283
     18 H4        -11.8347    5.5113   21.8362 H           1 DAO       0.0283
     19 H5         -9.1419    5.3925   23.2804 H           1 DAO       0.0266
     20 H6        -10.6934    5.6295   24.0820 H           1 DAO       0.0266
     21 H7        -10.0050    7.7909   23.9552 H           1 DAO       0.0265
     22 H8        -11.0048    7.7173   22.5078 H           1 DAO       0.0265
     23 H9         -9.2061    8.1854   21.1169 H           1 DAO       0.0265
     24 H10        -8.1677    7.0319   21.9571 H           1 DAO       0.0265
     25 H11        -8.1073    8.9640   23.8231 H           1 DAO       0.0265
     26 H12        -8.4495   10.0060   22.4456 H           1 DAO       0.0265
     27 H13        -6.3044    9.7610   21.5716 H           1 DAO       0.0265
     28 H14        -6.2314    8.0540   21.9500 H           1 DAO       0.0265
     29 H15        -4.5652    8.7584   23.3379 H           1 DAO       0.0265
     30 H16        -5.9058    8.8089   24.4500 H           1 DAO       0.0265
     31 H17        -4.3809   10.7609   24.6507 H           1 DAO       0.0265
     32 H18        -6.0578   11.2209   24.3492 H           1 DAO       0.0265
     33 H19        -4.6606   12.6844   23.0655 H           1 DAO       0.0263
     34 H20        -5.4531   11.6051   21.9077 H           1 DAO       0.0263
     35 H21        -3.0659   12.0082   21.3249 H           1 DAO       0.0230
     36 H22        -3.3127   10.2902   21.6885 H           1 DAO       0.0230
     37 H23        -2.5525   11.3590   22.9043 H           1 DAO       0.0230
@<TRIPOS>BOND
     1     1     3  ar
     2     3     2  ar
     3     3     4   1
     4     4     5   1
     5     5     6   1
     6     6     7   1
     7     7     8   1
     8     8     9   1
     9     9    10   1
    10    10    11   1
    11    11    12   1
    12    12    13   1
    13    13    14   1
    14     4    15   1
    15     4    16   1
    16     5    17   1
    17     5    18   1
    18     6    19   1
    19     6    20   1
    20     7    21   1
    21     7    22   1
    22     8    23   1
    23     8    24   1
    24     9    25   1
    25     9    26   1
    26    10    27   1
    27    10    28   1
    28    11    29   1
    29    11    30   1
    30    12    31   1
    31    12    32   1
    32    13    33   1
    33    13    34   1
    34    14    35   1
    35    14    36   1
    36    14    37   1
@<TRIPOS>SUBSTRUCTURE
     1  DAO      3

