@<TRIPOS>MOLECULE
3ueu_ligand_017
    37    36
SMALL
GAST_HUCK
****
This file was generated by PARSER (from files_GN.cpp)

@<TRIPOS>ATOM
      1 O1          0.8471   11.3851   21.8664 O.co2       1 DAO      -0.5690
      2 O2          0.9592   11.8196   19.5669 O.co2       1 DAO      -0.5690
      3 C1          0.2258   11.5166   20.6674 C.2         1 DAO       0.0348
      4 C2         -1.2487   11.4444   20.5857 C.3         1 DAO       0.0002
      5 C3         -1.7430   10.2383   19.7133 C.3         1 DAO      -0.0414
      6 C4         -3.1265    9.6437   20.1329 C.3         1 DAO      -0.0516
      7 C5         -4.3060   10.6514   20.3656 C.3         1 DAO      -0.0530
      8 C6         -5.1315   10.2559   21.6285 C.3         1 DAO      -0.0531
      9 C7         -6.1535   11.3390   22.0953 C.3         1 DAO      -0.0531
     10 C8         -5.6061   12.4049   23.0969 C.3         1 DAO      -0.0531
     11 C9         -5.7006   12.0429   24.6023 C.3         1 DAO      -0.0531
     12 C10        -4.8287   10.8381   25.0456 C.3         1 DAO      -0.0533
     13 C11        -4.6952   10.5659   26.5775 C.3         1 DAO      -0.0559
     14 C12        -5.4188   11.5244   27.5492 C.3         1 DAO      -0.0653
     15 H1         -1.6196   12.3812   20.1452 H           1 DAO       0.0430
     16 H2         -1.6673   11.3597   21.6034 H           1 DAO       0.0430
     17 H3         -1.0157    9.4124   19.8071 H           1 DAO       0.0283
     18 H4         -1.7709   10.5335   18.6484 H           1 DAO       0.0283
     19 H5         -2.9275    9.0598   21.0483 H           1 DAO       0.0266
     20 H6         -3.4265    8.9149   19.3660 H           1 DAO       0.0266
     21 H7         -4.9670   10.6291   19.4822 H           1 DAO       0.0265
     22 H8         -3.9253   11.6753   20.4924 H           1 DAO       0.0265
     23 H9         -4.4261   10.0514   22.4504 H           1 DAO       0.0265
     24 H10        -5.6788    9.3206   21.3988 H           1 DAO       0.0265
     25 H11        -7.0171   10.8328   22.5534 H           1 DAO       0.0265
     26 H12        -6.5316   11.8565   21.1958 H           1 DAO       0.0265
     27 H13        -6.1980   13.3138   22.9528 H           1 DAO       0.0265
     28 H14        -4.5682   12.6484   22.8480 H           1 DAO       0.0265
     29 H15        -6.7434   11.8417   24.8486 H           1 DAO       0.0265
     30 H16        -5.4012   12.9265   25.1569 H           1 DAO       0.0265
     31 H17        -3.8267   10.9780   24.6263 H           1 DAO       0.0265
     32 H18        -5.2520    9.9426   24.5865 H           1 DAO       0.0265
     33 H19        -3.6304   10.5681   26.8409 H           1 DAO       0.0263
     34 H20        -5.0682    9.5553   26.7754 H           1 DAO       0.0263
     35 H21        -5.2354   11.1992   28.5788 H           1 DAO       0.0230
     36 H22        -6.4997   11.5133   27.3655 H           1 DAO       0.0230
     37 H23        -5.0373   12.5448   27.4366 H           1 DAO       0.0230
@<TRIPOS>BOND
     1     1     3  ar
     2     3     2  ar
     3     3     4   1
     4     4     5   1
     5     5     6   1
     6     6     7   1
     7     7     8   1
     8     8     9   1
     9     9    10   1
    10    10    11   1
    11    11    12   1
    12    12    13   1
    13    13    14   1
    14     4    15   1
    15     4    16   1
    16     5    17   1
    17     5    18   1
    18     6    19   1
    19     6    20   1
    20     7    21   1
    21     7    22   1
    22     8    23   1
    23     8    24   1
    24     9    25   1
    25     9    26   1
    26    10    27   1
    27    10    28   1
    28    11    29   1
    29    11    30   1
    30    12    31   1
    31    12    32   1
    32    13    33   1
    33    13    34   1
    34    14    35   1
    35    14    36   1
    36    14    37   1
@<TRIPOS>SUBSTRUCTURE
     1  DAO      3

