@<TRIPOS>MOLECULE
3uex_ligand_045
    55    54
SMALL
GAST_HUCK
****
This file was generated by PARSER (from files_GN.cpp)

@<TRIPOS>ATOM
      1 C1        -11.4869    4.2274   21.9713 C.2         1 STE       0.0348
      2 O1        -11.7497    3.4345   23.0370 O.co2       1 STE      -0.5690
      3 O2        -11.3975    3.6691   20.7438 O.co2       1 STE      -0.5690
      4 C2        -11.2884    5.6781   22.1222 C.3         1 STE       0.0002
      5 C3         -9.8381    6.1057   21.7893 C.3         1 STE      -0.0414
      6 C4         -9.6934    7.6311   21.5289 C.3         1 STE      -0.0516
      7 C5         -8.3484    8.0645   20.8887 C.3         1 STE      -0.0530
      8 C6         -7.5433    6.9561   20.1544 C.3         1 STE      -0.0531
      9 C7         -6.0390    7.3034   20.0161 C.3         1 STE      -0.0531
     10 C8         -5.1754    6.1283   19.4784 C.3         1 STE      -0.0531
     11 C9         -4.6527    6.3342   18.0278 C.3         1 STE      -0.0531
     12 C10        -3.7324    5.1880   17.5195 C.3         1 STE      -0.0531
     13 C11        -4.4859    3.8868   17.1294 C.3         1 STE      -0.0531
     14 C12        -3.5934    2.8983   16.3312 C.3         1 STE      -0.0531
     15 C13        -4.3761    1.6618   15.8119 C.3         1 STE      -0.0531
     16 C14        -3.6845    0.9599   14.6115 C.3         1 STE      -0.0531
     17 C15        -4.1917   -0.4991   14.3889 C.3         1 STE      -0.0531
     18 C16        -4.3876   -0.8653   12.8903 C.3         1 STE      -0.0533
     19 C17        -5.2714   -2.1321   12.6872 C.3         1 STE      -0.0559
     20 C18        -6.3058   -1.9602   11.5460 C.3         1 STE      -0.0653
     21 H1        -11.5314    5.9788   23.1410 H           1 STE       0.0430
     22 H2        -11.9818    6.1791   21.4460 H           1 STE       0.0430
     23 H3         -9.5178    5.5668   20.8965 H           1 STE       0.0283
     24 H4         -9.1794    5.8144   22.6143 H           1 STE       0.0283
     25 H5         -9.8060    8.1653   22.4741 H           1 STE       0.0266
     26 H6        -10.5041    7.9562   20.8743 H           1 STE       0.0266
     27 H7         -7.7254    8.4934   21.6723 H           1 STE       0.0265
     28 H8         -8.5551    8.8590   20.1726 H           1 STE       0.0265
     29 H9         -7.9815    6.7885   19.1655 H           1 STE       0.0265
     30 H10        -7.6170    6.0241   20.7203 H           1 STE       0.0265
     31 H11        -5.6596    7.5679   21.0070 H           1 STE       0.0265
     32 H12        -5.9148    8.1799   19.3748 H           1 STE       0.0265
     33 H13        -5.7432    5.1976   19.5407 H           1 STE       0.0265
     34 H14        -4.3064    6.0156   20.1368 H           1 STE       0.0265
     35 H15        -4.0809    7.2686   18.0104 H           1 STE       0.0265
     36 H16        -5.4926    6.4575   17.3387 H           1 STE       0.0265
     37 H17        -2.9801    4.9622   18.2797 H           1 STE       0.0265
     38 H18        -3.1998    5.5581   16.6349 H           1 STE       0.0265
     39 H19        -5.3527    4.1572   16.5194 H           1 STE       0.0265
     40 H20        -4.8455    3.3906   18.0322 H           1 STE       0.0265
     41 H21        -2.7772    2.5523   16.9640 H           1 STE       0.0265
     42 H22        -3.1617    3.4253   15.4791 H           1 STE       0.0265
     43 H23        -5.3747    1.9704   15.4920 H           1 STE       0.0265
     44 H24        -4.4951    0.9384   16.6294 H           1 STE       0.0265
     45 H25        -2.6035    0.9391   14.7716 H           1 STE       0.0265
     46 H26        -3.8695    1.5595   13.7134 H           1 STE       0.0265
     47 H27        -5.1571   -0.6399   14.8880 H           1 STE       0.0265
     48 H28        -3.4839   -1.1981   14.8365 H           1 STE       0.0265
     49 H29        -3.4201   -1.0310   12.4182 H           1 STE       0.0265
     50 H30        -4.8680   -0.0163   12.3928 H           1 STE       0.0265
     51 H31        -5.8235   -2.3661   13.6041 H           1 STE       0.0263
     52 H32        -4.6294   -2.9950   12.4534 H           1 STE       0.0263
     53 H33        -6.8418   -2.9013   11.3861 H           1 STE       0.0230
     54 H34        -5.8016   -1.6699   10.6174 H           1 STE       0.0230
     55 H35        -7.0274   -1.1857   11.8201 H           1 STE       0.0230
@<TRIPOS>BOND
     1     1     2  ar
     2     1     3  ar
     3     1     4   1
     4     4     5   1
     5     5     6   1
     6     6     7   1
     7     7     8   1
     8     8     9   1
     9     9    10   1
    10    10    11   1
    11    11    12   1
    12    12    13   1
    13    13    14   1
    14    14    15   1
    15    15    16   1
    16    16    17   1
    17    17    18   1
    18    18    19   1
    19    19    20   1
    20     4    21   1
    21     4    22   1
    22     5    23   1
    23     5    24   1
    24     6    25   1
    25     6    26   1
    26     7    27   1
    27     7    28   1
    28     8    29   1
    29     8    30   1
    30     9    31   1
    31     9    32   1
    32    10    33   1
    33    10    34   1
    34    11    35   1
    35    11    36   1
    36    12    37   1
    37    12    38   1
    38    13    39   1
    39    13    40   1
    40    14    41   1
    41    14    42   1
    42    15    43   1
    43    15    44   1
    44    16    45   1
    45    16    46   1
    46    17    47   1
    47    17    48   1
    48    18    49   1
    49    18    50   1
    50    19    51   1
    51    19    52   1
    52    20    53   1
    53    20    54   1
    54    20    55   1
@<TRIPOS>SUBSTRUCTURE
     1  STE      1

