@<TRIPOS>MOLECULE
3uex_ligand_050
    55    54
SMALL
GAST_HUCK
****
This file was generated by PARSER (from files_GN.cpp)

@<TRIPOS>ATOM
      1 C1         -7.6369    3.6554   15.3634 C.2         1 STE       0.0348
      2 O1         -7.4424    4.4809   14.3162 O.co2       1 STE      -0.5690
      3 O2         -8.8573    3.6192   15.9244 O.co2       1 STE      -0.5690
      4 C2         -6.5129    2.9439   15.9925 C.3         1 STE       0.0002
      5 C3         -5.4962    3.8838   16.6960 C.3         1 STE      -0.0414
      6 C4         -6.1704    4.8904   17.6803 C.3         1 STE      -0.0516
      7 C5         -5.1979    5.6052   18.6562 C.3         1 STE      -0.0530
      8 C6         -4.0830    6.4312   17.9502 C.3         1 STE      -0.0531
      9 C7         -3.2305    7.3145   18.9044 C.3         1 STE      -0.0531
     10 C8         -2.0652    6.6000   19.6534 C.3         1 STE      -0.0531
     11 C9         -2.3846    6.0971   21.0840 C.3         1 STE      -0.0531
     12 C10        -1.1898    5.3941   21.7886 C.3         1 STE      -0.0531
     13 C11        -0.8723    3.9469   21.3244 C.3         1 STE      -0.0531
     14 C12        -1.9021    2.8838   21.8073 C.3         1 STE      -0.0531
     15 C13        -1.4469    1.4037   21.6269 C.3         1 STE      -0.0531
     16 C14        -0.3452    0.8962   22.6037 C.3         1 STE      -0.0531
     17 C15        -0.8119    0.7101   24.0765 C.3         1 STE      -0.0531
     18 C16         0.3321    0.3998   25.0843 C.3         1 STE      -0.0533
     19 C17         0.9168   -1.0308   24.9653 C.3         1 STE      -0.0559
     20 C18         1.8783   -1.3797   26.1239 C.3         1 STE      -0.0653
     21 H1         -5.9862    2.3667   15.2294 H           1 STE       0.0430
     22 H2         -6.8959    2.2392   16.7280 H           1 STE       0.0430
     23 H3         -4.9489    4.4442   15.9399 H           1 STE       0.0283
     24 H4         -4.7819    3.2739   17.2530 H           1 STE       0.0283
     25 H5         -6.9103    4.3591   18.2885 H           1 STE       0.0266
     26 H6         -6.7056    5.6534   17.1080 H           1 STE       0.0266
     27 H7         -4.7315    4.8502   19.3077 H           1 STE       0.0265
     28 H8         -5.7906    6.2881   19.2783 H           1 STE       0.0265
     29 H9         -4.5602    7.0910   17.2139 H           1 STE       0.0265
     30 H10        -3.4242    5.7598   17.3942 H           1 STE       0.0265
     31 H11        -3.8808    7.8194   19.6256 H           1 STE       0.0265
     32 H12        -2.7898    8.1056   18.2870 H           1 STE       0.0265
     33 H13        -1.2382    7.3141   19.7372 H           1 STE       0.0265
     34 H14        -1.6896    5.7732   19.0358 H           1 STE       0.0265
     35 H15        -3.2376    5.4258   21.0710 H           1 STE       0.0265
     36 H16        -2.6609    6.9681   21.6851 H           1 STE       0.0265
     37 H17        -1.3808    5.3743   22.8687 H           1 STE       0.0265
     38 H18        -0.2900    6.0070   21.6460 H           1 STE       0.0265
     39 H19         0.1138    3.6916   21.7172 H           1 STE       0.0265
     40 H20        -0.7991    3.9081   20.2367 H           1 STE       0.0265
     41 H21        -2.8255    3.0234   21.2391 H           1 STE       0.0265
     42 H22        -2.1460    3.0630   22.8585 H           1 STE       0.0265
     43 H23        -1.0841    1.2846   20.5978 H           1 STE       0.0265
     44 H24        -2.3306    0.7599   21.7392 H           1 STE       0.0265
     45 H25         0.5078    1.5758   22.5761 H           1 STE       0.0265
     46 H26        -0.0002   -0.0685   22.2355 H           1 STE       0.0265
     47 H27        -1.5588   -0.0897   24.1210 H           1 STE       0.0265
     48 H28        -1.2968    1.6253   24.4252 H           1 STE       0.0265
     49 H29        -0.0738    0.5184   26.0913 H           1 STE       0.0265
     50 H30         1.1393    1.1298   24.9613 H           1 STE       0.0265
     51 H31         1.4590   -1.1366   24.0198 H           1 STE       0.0263
     52 H32         0.1058   -1.7638   24.9739 H           1 STE       0.0263
     53 H33         2.2646   -2.3955   26.0024 H           1 STE       0.0230
     54 H34         1.3529   -1.3241   27.0830 H           1 STE       0.0230
     55 H35         2.7205   -0.6885   26.1429 H           1 STE       0.0230
@<TRIPOS>BOND
     1     1     2  ar
     2     1     3  ar
     3     1     4   1
     4     4     5   1
     5     5     6   1
     6     6     7   1
     7     7     8   1
     8     8     9   1
     9     9    10   1
    10    10    11   1
    11    11    12   1
    12    12    13   1
    13    13    14   1
    14    14    15   1
    15    15    16   1
    16    16    17   1
    17    17    18   1
    18    18    19   1
    19    19    20   1
    20     4    21   1
    21     4    22   1
    22     5    23   1
    23     5    24   1
    24     6    25   1
    25     6    26   1
    26     7    27   1
    27     7    28   1
    28     8    29   1
    29     8    30   1
    30     9    31   1
    31     9    32   1
    32    10    33   1
    33    10    34   1
    34    11    35   1
    35    11    36   1
    36    12    37   1
    37    12    38   1
    38    13    39   1
    39    13    40   1
    40    14    41   1
    41    14    42   1
    42    15    43   1
    43    15    44   1
    44    16    45   1
    45    16    46   1
    46    17    47   1
    47    17    48   1
    48    18    49   1
    49    18    50   1
    50    19    51   1
    51    19    52   1
    52    20    53   1
    53    20    54   1
    54    20    55   1
@<TRIPOS>SUBSTRUCTURE
     1  STE      1

