@<TRIPOS>MOLECULE
3uex_ligand_003
    55    54
SMALL
GAST_HUCK
****
This file was generated by PARSER (from files_GN.cpp)

@<TRIPOS>ATOM
      1 C1         -7.5991    3.6776   15.2788 C.2         1 STE       0.0348
      2 O1         -7.4659    4.2491   14.0576 O.co2       1 STE      -0.5690
      3 O2         -8.8064    3.7878   15.8764 O.co2       1 STE      -0.5690
      4 C2         -6.6143    2.6868   15.7686 C.3         1 STE       0.0002
      5 C3         -6.1364    2.9029   17.2324 C.3         1 STE      -0.0414
      6 C4         -4.9556    3.9060   17.3773 C.3         1 STE      -0.0516
      7 C5         -4.1303    3.6508   18.6737 C.3         1 STE      -0.0530
      8 C6         -2.8414    4.5043   18.8257 C.3         1 STE      -0.0531
      9 C7         -3.0691    6.0357   19.0319 C.3         1 STE      -0.0531
     10 C8         -1.9023    6.7320   19.7929 C.3         1 STE      -0.0531
     11 C9         -1.8659    8.2921   19.7141 C.3         1 STE      -0.0531
     12 C10        -3.2247    8.9880   19.4091 C.3         1 STE      -0.0531
     13 C11        -3.1252   10.5478   19.3840 C.3         1 STE      -0.0531
     14 C12        -4.1944   11.2148   18.4505 C.3         1 STE      -0.0531
     15 C13        -4.9497   12.4459   19.0482 C.3         1 STE      -0.0531
     16 C14        -4.8831   13.7516   18.2036 C.3         1 STE      -0.0531
     17 C15        -3.5868   14.5872   18.4106 C.3         1 STE      -0.0531
     18 C16        -3.8298   16.1036   18.1568 C.3         1 STE      -0.0533
     19 C17        -2.5471   16.9846   18.0537 C.3         1 STE      -0.0559
     20 C18        -1.3897   16.5958   19.0088 C.3         1 STE      -0.0653
     21 H1         -5.7375    2.6839   15.1111 H           1 STE       0.0430
     22 H2         -7.0798    1.6962   15.6920 H           1 STE       0.0430
     23 H3         -5.8005    1.9268   17.6023 H           1 STE       0.0283
     24 H4         -6.9791    3.2198   17.8572 H           1 STE       0.0283
     25 H5         -5.3507    4.9291   17.3916 H           1 STE       0.0266
     26 H6         -4.2887    3.8007   16.5130 H           1 STE       0.0266
     27 H7         -3.8281    2.5945   18.6858 H           1 STE       0.0265
     28 H8         -4.7718    3.8234   19.5425 H           1 STE       0.0265
     29 H9         -2.2045    4.3649   17.9392 H           1 STE       0.0265
     30 H10        -2.2913    4.1000   19.6902 H           1 STE       0.0265
     31 H11        -3.9890    6.1833   19.6089 H           1 STE       0.0265
     32 H12        -3.2010    6.5072   18.0511 H           1 STE       0.0265
     33 H13        -0.9503    6.3584   19.3947 H           1 STE       0.0265
     34 H14        -1.9509    6.4326   20.8500 H           1 STE       0.0265
     35 H15        -1.1609    8.5791   18.9204 H           1 STE       0.0265
     36 H16        -1.4564    8.6623   20.6631 H           1 STE       0.0265
     37 H17        -3.9586    8.7072   20.1760 H           1 STE       0.0265
     38 H18        -3.5700    8.6145   18.4319 H           1 STE       0.0265
     39 H19        -2.1235   10.8412   19.0305 H           1 STE       0.0265
     40 H20        -3.2268   10.9021   20.4253 H           1 STE       0.0265
     41 H21        -4.9527   10.4742   18.1731 H           1 STE       0.0265
     42 H22        -3.6892   11.4992   17.5180 H           1 STE       0.0265
     43 H23        -4.6086   12.6716   20.0627 H           1 STE       0.0265
     44 H24        -6.0081   12.1788   19.1365 H           1 STE       0.0265
     45 H25        -5.7586   14.3572   18.4705 H           1 STE       0.0265
     46 H26        -4.9830   13.4967   17.1407 H           1 STE       0.0265
     47 H27        -2.8140   14.2117   17.7306 H           1 STE       0.0265
     48 H28        -3.2385   14.4596   19.4411 H           1 STE       0.0265
     49 H29        -4.4503   16.4952   18.9723 H           1 STE       0.0265
     50 H30        -4.3874   16.2240   17.2160 H           1 STE       0.0265
     51 H31        -2.8405   18.0166   18.2831 H           1 STE       0.0263
     52 H32        -2.1823   16.9648   17.0178 H           1 STE       0.0263
     53 H33        -0.6700   17.4203   19.0640 H           1 STE       0.0230
     54 H34        -0.8791   15.7014   18.6297 H           1 STE       0.0230
     55 H35        -1.7763   16.3931   20.0152 H           1 STE       0.0230
@<TRIPOS>BOND
     1     1     2  ar
     2     1     3  ar
     3     1     4   1
     4     4     5   1
     5     5     6   1
     6     6     7   1
     7     7     8   1
     8     8     9   1
     9     9    10   1
    10    10    11   1
    11    11    12   1
    12    12    13   1
    13    13    14   1
    14    14    15   1
    15    15    16   1
    16    16    17   1
    17    17    18   1
    18    18    19   1
    19    19    20   1
    20     4    21   1
    21     4    22   1
    22     5    23   1
    23     5    24   1
    24     6    25   1
    25     6    26   1
    26     7    27   1
    27     7    28   1
    28     8    29   1
    29     8    30   1
    30     9    31   1
    31     9    32   1
    32    10    33   1
    33    10    34   1
    34    11    35   1
    35    11    36   1
    36    12    37   1
    37    12    38   1
    38    13    39   1
    39    13    40   1
    40    14    41   1
    41    14    42   1
    42    15    43   1
    43    15    44   1
    44    16    45   1
    45    16    46   1
    46    17    47   1
    47    17    48   1
    48    18    49   1
    49    18    50   1
    50    19    51   1
    51    19    52   1
    52    20    53   1
    53    20    54   1
    54    20    55   1
@<TRIPOS>SUBSTRUCTURE
     1  STE      1

