@<TRIPOS>MOLECULE
3uex_ligand_014
    55    54
SMALL
GAST_HUCK
****
This file was generated by PARSER (from files_GN.cpp)

@<TRIPOS>ATOM
      1 C1         -5.1942    0.7499   15.5374 C.2         1 STE       0.0348
      2 O1         -5.1153    0.2350   14.2927 O.co2       1 STE      -0.5690
      3 O2         -6.1262    1.6996   15.7841 O.co2       1 STE      -0.5690
      4 C2         -4.2883    0.2911   16.6022 C.3         1 STE       0.0002
      5 C3         -3.5330    1.4758   17.2559 C.3         1 STE      -0.0414
      6 C4         -2.4386    1.0184   18.2672 C.3         1 STE      -0.0516
      7 C5         -1.4275    2.1212   18.6960 C.3         1 STE      -0.0530
      8 C6         -2.0143    3.4255   19.3164 C.3         1 STE      -0.0531
      9 C7         -2.5801    3.2912   20.7676 C.3         1 STE      -0.0531
     10 C8         -1.6343    3.7314   21.9272 C.3         1 STE      -0.0531
     11 C9         -1.0974    5.1953   21.8941 C.3         1 STE      -0.0531
     12 C10        -2.0795    6.2958   21.3994 C.3         1 STE      -0.0531
     13 C11        -3.3004    6.5490   22.3293 C.3         1 STE      -0.0531
     14 C12        -4.1909    7.7589   21.9145 C.3         1 STE      -0.0531
     15 C13        -5.2122    7.4872   20.7619 C.3         1 STE      -0.0531
     16 C14        -4.7575    8.0101   19.3684 C.3         1 STE      -0.0531
     17 C15        -5.4694    7.3401   18.1602 C.3         1 STE      -0.0531
     18 C16        -6.9232    7.7805   17.8473 C.3         1 STE      -0.0533
     19 C17        -7.2808    9.2159   18.3191 C.3         1 STE      -0.0559
     20 C18        -8.6926    9.6530   17.8680 C.3         1 STE      -0.0653
     21 H1         -3.5642   -0.4123   16.1842 H           1 STE       0.0430
     22 H2         -4.8756   -0.2324   17.3615 H           1 STE       0.0430
     23 H3         -4.2585    2.1004   17.7850 H           1 STE       0.0283
     24 H4         -3.0578    2.0811   16.4774 H           1 STE       0.0283
     25 H5         -1.8564    0.2113   17.8066 H           1 STE       0.0266
     26 H6         -2.9191    0.6030   19.1588 H           1 STE       0.0266
     27 H7         -0.8511    2.4141   17.8151 H           1 STE       0.0265
     28 H8         -0.7207    1.6914   19.4133 H           1 STE       0.0265
     29 H9         -2.8144    3.7927   18.6678 H           1 STE       0.0265
     30 H10        -1.2348    4.1923   19.2993 H           1 STE       0.0265
     31 H11        -2.8825    2.2568   20.9536 H           1 STE       0.0265
     32 H12        -3.4955    3.8873   20.8390 H           1 STE       0.0265
     33 H13        -0.7775    3.0500   21.9558 H           1 STE       0.0265
     34 H14        -2.1798    3.5951   22.8683 H           1 STE       0.0265
     35 H15        -0.2180    5.2193   21.2407 H           1 STE       0.0265
     36 H16        -0.7520    5.4597   22.9009 H           1 STE       0.0265
     37 H17        -2.4193    6.0151   20.4068 H           1 STE       0.0265
     38 H18        -1.5246    7.2312   21.2970 H           1 STE       0.0265
     39 H19        -2.9273    6.7304   23.3447 H           1 STE       0.0265
     40 H20        -3.9324    5.6555   22.3718 H           1 STE       0.0265
     41 H21        -3.5535    8.6137   21.6700 H           1 STE       0.0265
     42 H22        -4.7608    8.0449   22.8039 H           1 STE       0.0265
     43 H23        -6.1537    7.9944   21.0085 H           1 STE       0.0265
     44 H24        -5.4342    6.4156   20.7006 H           1 STE       0.0265
     45 H25        -3.6890    7.8330   19.2363 H           1 STE       0.0265
     46 H26        -4.9164    9.0907   19.3185 H           1 STE       0.0265
     47 H27        -5.4657    6.2503   18.3014 H           1 STE       0.0265
     48 H28        -4.8612    7.5373   17.2706 H           1 STE       0.0265
     49 H29        -7.6179    7.0711   18.3070 H           1 STE       0.0265
     50 H30        -7.0506    7.7179   16.7626 H           1 STE       0.0265
     51 H31        -6.5468    9.9274   17.9260 H           1 STE       0.0263
     52 H32        -7.2373    9.2493   19.4101 H           1 STE       0.0263
     53 H33        -8.9555   10.6042   18.3358 H           1 STE       0.0230
     54 H34        -9.4433    8.9062   18.1503 H           1 STE       0.0230
     55 H35        -8.7140    9.7834   16.7842 H           1 STE       0.0230
@<TRIPOS>BOND
     1     1     2  ar
     2     1     3  ar
     3     1     4   1
     4     4     5   1
     5     5     6   1
     6     6     7   1
     7     7     8   1
     8     8     9   1
     9     9    10   1
    10    10    11   1
    11    11    12   1
    12    12    13   1
    13    13    14   1
    14    14    15   1
    15    15    16   1
    16    16    17   1
    17    17    18   1
    18    18    19   1
    19    19    20   1
    20     4    21   1
    21     4    22   1
    22     5    23   1
    23     5    24   1
    24     6    25   1
    25     6    26   1
    26     7    27   1
    27     7    28   1
    28     8    29   1
    29     8    30   1
    30     9    31   1
    31     9    32   1
    32    10    33   1
    33    10    34   1
    34    11    35   1
    35    11    36   1
    36    12    37   1
    37    12    38   1
    38    13    39   1
    39    13    40   1
    40    14    41   1
    41    14    42   1
    42    15    43   1
    43    15    44   1
    44    16    45   1
    45    16    46   1
    46    17    47   1
    47    17    48   1
    48    18    49   1
    49    18    50   1
    50    19    51   1
    51    19    52   1
    52    20    53   1
    53    20    54   1
    54    20    55   1
@<TRIPOS>SUBSTRUCTURE
     1  STE      1

