@<TRIPOS>MOLECULE
3uex_ligand_037
    55    54
SMALL
GAST_HUCK
****
This file was generated by PARSER (from files_GN.cpp)

@<TRIPOS>ATOM
      1 C1         -7.5523    3.7172   15.2609 C.2         1 STE       0.0348
      2 O1         -8.7590    3.8460   15.8530 O.co2       1 STE      -0.5690
      3 O2         -7.3433    4.4562   14.1514 O.co2       1 STE      -0.5690
      4 C2         -6.4111    3.0237   15.9063 C.3         1 STE       0.0002
      5 C3         -6.8032    2.1085   17.1154 C.3         1 STE      -0.0414
      6 C4         -5.6223    1.9603   18.1219 C.3         1 STE      -0.0516
      7 C5         -6.0072    1.2016   19.4194 C.3         1 STE      -0.0530
      8 C6         -4.8599    1.1058   20.4813 C.3         1 STE      -0.0531
      9 C7         -4.5296    2.4274   21.2460 C.3         1 STE      -0.0531
     10 C8         -3.4598    3.3402   20.5529 C.3         1 STE      -0.0531
     11 C9         -3.9423    4.8007   20.2975 C.3         1 STE      -0.0531
     12 C10        -3.8632    5.7198   21.5516 C.3         1 STE      -0.0531
     13 C11        -4.2171    7.2097   21.2203 C.3         1 STE      -0.0531
     14 C12        -2.9997    8.1237   20.8716 C.3         1 STE      -0.0531
     15 C13        -1.9781    7.5037   19.8790 C.3         1 STE      -0.0531
     16 C14        -0.7014    8.3545   19.6300 C.3         1 STE      -0.0531
     17 C15        -0.8690    9.5270   18.6075 C.3         1 STE      -0.0531
     18 C16        -0.6304   10.9372   19.2126 C.3         1 STE      -0.0533
     19 C17        -1.7599   11.9471   18.8585 C.3         1 STE      -0.0559
     20 C18        -1.6619   13.2729   19.6475 C.3         1 STE      -0.0653
     21 H1         -5.7109    3.8041   16.2329 H           1 STE       0.0430
     22 H2         -5.8881    2.4032   15.1650 H           1 STE       0.0430
     23 H3         -7.0985    1.1166   16.7452 H           1 STE       0.0283
     24 H4         -7.6541    2.5417   17.6608 H           1 STE       0.0283
     25 H5         -5.2901    2.9721   18.3827 H           1 STE       0.0266
     26 H6         -4.7882    1.4285   17.6219 H           1 STE       0.0266
     27 H7         -6.2997    0.1792   19.1433 H           1 STE       0.0265
     28 H8         -6.8818    1.6846   19.8913 H           1 STE       0.0265
     29 H9         -3.9520    0.7043   20.0153 H           1 STE       0.0265
     30 H10        -5.1856    0.3666   21.2211 H           1 STE       0.0265
     31 H11        -4.1472    2.1497   22.2352 H           1 STE       0.0265
     32 H12        -5.4602    2.9693   21.4280 H           1 STE       0.0265
     33 H13        -3.1578    2.9172   19.5907 H           1 STE       0.0265
     34 H14        -2.5464    3.3533   21.1711 H           1 STE       0.0265
     35 H15        -4.9849    4.7794   19.9360 H           1 STE       0.0265
     36 H16        -3.3208    5.2053   19.4860 H           1 STE       0.0265
     37 H17        -2.8614    5.6699   22.0002 H           1 STE       0.0265
     38 H18        -4.5795    5.3337   22.2830 H           1 STE       0.0265
     39 H19        -4.6979    7.6367   22.0995 H           1 STE       0.0265
     40 H20        -4.9521    7.2577   20.4037 H           1 STE       0.0265
     41 H21        -2.4691    8.3662   21.7952 H           1 STE       0.0265
     42 H22        -3.3955    9.0584   20.4585 H           1 STE       0.0265
     43 H23        -2.4557    7.3110   18.9172 H           1 STE       0.0265
     44 H24        -1.6541    6.5475   20.2991 H           1 STE       0.0265
     45 H25         0.0742    7.6825   19.2417 H           1 STE       0.0265
     46 H26        -0.3349    8.7366   20.5955 H           1 STE       0.0265
     47 H27        -1.8594    9.4785   18.1603 H           1 STE       0.0265
     48 H28        -0.1454    9.3999   17.7937 H           1 STE       0.0265
     49 H29         0.3233   11.3292   18.8476 H           1 STE       0.0265
     50 H30        -0.5643   10.8853   20.3032 H           1 STE       0.0265
     51 H31        -2.7296   11.4904   19.0737 H           1 STE       0.0263
     52 H32        -1.7261   12.1756   17.7903 H           1 STE       0.0263
     53 H33        -2.5332   13.9014   19.4291 H           1 STE       0.0230
     54 H34        -0.7578   13.8265   19.3529 H           1 STE       0.0230
     55 H35        -1.6289   13.0841   20.7243 H           1 STE       0.0230
@<TRIPOS>BOND
     1     1     2  ar
     2     1     3  ar
     3     1     4   1
     4     4     5   1
     5     5     6   1
     6     6     7   1
     7     7     8   1
     8     8     9   1
     9     9    10   1
    10    10    11   1
    11    11    12   1
    12    12    13   1
    13    13    14   1
    14    14    15   1
    15    15    16   1
    16    16    17   1
    17    17    18   1
    18    18    19   1
    19    19    20   1
    20     4    21   1
    21     4    22   1
    22     5    23   1
    23     5    24   1
    24     6    25   1
    25     6    26   1
    26     7    27   1
    27     7    28   1
    28     8    29   1
    29     8    30   1
    30     9    31   1
    31     9    32   1
    32    10    33   1
    33    10    34   1
    34    11    35   1
    35    11    36   1
    36    12    37   1
    37    12    38   1
    38    13    39   1
    39    13    40   1
    40    14    41   1
    41    14    42   1
    42    15    43   1
    43    15    44   1
    44    16    45   1
    45    16    46   1
    46    17    47   1
    47    17    48   1
    48    18    49   1
    49    18    50   1
    50    19    51   1
    51    19    52   1
    52    20    53   1
    53    20    54   1
    54    20    55   1
@<TRIPOS>SUBSTRUCTURE
     1  STE      1

