@<TRIPOS>MOLECULE
3uex_ligand_067
    55    54
SMALL
GAST_HUCK
****
This file was generated by PARSER (from files_GN.cpp)

@<TRIPOS>ATOM
      1 C1         -4.6077    0.0670   15.7486 C.2         1 STE       0.0348
      2 O1         -5.3290    0.4969   14.6845 O.co2       1 STE      -0.5690
      3 O2         -3.3595   -0.3913   15.5223 O.co2       1 STE      -0.5690
      4 C2         -5.2810   -0.2060   17.0335 C.3         1 STE       0.0002
      5 C3         -4.5188    0.3397   18.2721 C.3         1 STE      -0.0414
      6 C4         -4.5147    1.8824   18.4653 C.3         1 STE      -0.0516
      7 C5         -5.9138    2.5077   18.7415 C.3         1 STE      -0.0530
      8 C6         -5.9016    3.8016   19.6077 C.3         1 STE      -0.0531
      9 C7         -5.0301    4.9623   19.0552 C.3         1 STE      -0.0531
     10 C8         -5.0202    6.2461   19.9399 C.3         1 STE      -0.0531
     11 C9         -6.3248    7.0954   19.9744 C.3         1 STE      -0.0531
     12 C10        -6.6864    7.8491   18.6571 C.3         1 STE      -0.0531
     13 C11        -6.2747    9.3514   18.5783 C.3         1 STE      -0.0531
     14 C12        -4.7507    9.6327   18.7364 C.3         1 STE      -0.0531
     15 C13        -4.2937   11.0607   18.2791 C.3         1 STE      -0.0531
     16 C14        -4.0695   12.1340   19.3877 C.3         1 STE      -0.0531
     17 C15        -2.9952   11.8705   20.4919 C.3         1 STE      -0.0531
     18 C16        -1.4913   12.0143   20.1013 C.3         1 STE      -0.0533
     19 C17        -0.8327   10.8659   19.2852 C.3         1 STE      -0.0559
     20 C18        -0.8851    9.4758   19.9593 C.3         1 STE      -0.0653
     21 H1         -5.3665   -1.2916   17.1319 H           1 STE       0.0430
     22 H2         -6.2960    0.2002   17.0142 H           1 STE       0.0430
     23 H3         -3.4812   -0.0035   18.2217 H           1 STE       0.0283
     24 H4         -4.9564   -0.1151   19.1659 H           1 STE       0.0283
     25 H5         -4.0734    2.3546   17.5839 H           1 STE       0.0266
     26 H6         -3.8596    2.0943   19.3157 H           1 STE       0.0266
     27 H7         -6.5352    1.7750   19.2672 H           1 STE       0.0265
     28 H8         -6.4007    2.7217   17.7861 H           1 STE       0.0265
     29 H9         -5.5530    3.5404   20.6114 H           1 STE       0.0265
     30 H10        -6.9370    4.1386   19.6966 H           1 STE       0.0265
     31 H11        -5.3498    5.2057   18.0412 H           1 STE       0.0265
     32 H12        -3.9972    4.6094   18.9941 H           1 STE       0.0265
     33 H13        -4.2039    6.8835   19.5981 H           1 STE       0.0265
     34 H14        -4.7850    5.9476   20.9648 H           1 STE       0.0265
     35 H15        -6.2386    7.8249   20.7853 H           1 STE       0.0265
     36 H16        -7.1574    6.4429   20.2451 H           1 STE       0.0265
     37 H17        -7.7764    7.8207   18.5440 H           1 STE       0.0265
     38 H18        -6.2710    7.3273   17.7899 H           1 STE       0.0265
     39 H19        -6.8277    9.9141   19.3361 H           1 STE       0.0265
     40 H20        -6.6020    9.7187   17.6003 H           1 STE       0.0265
     41 H21        -4.2059    8.8930   18.1368 H           1 STE       0.0265
     42 H22        -4.4756    9.4709   19.7796 H           1 STE       0.0265
     43 H23        -5.0341   11.4624   17.5785 H           1 STE       0.0265
     44 H24        -3.3709   10.9664   17.7032 H           1 STE       0.0265
     45 H25        -5.0318   12.2935   19.8878 H           1 STE       0.0265
     46 H26        -3.8139   13.0757   18.8877 H           1 STE       0.0265
     47 H27        -3.1686   10.9031   20.9618 H           1 STE       0.0265
     48 H28        -3.1821   12.6183   21.2721 H           1 STE       0.0265
     49 H29        -0.9219   12.1135   21.0320 H           1 STE       0.0265
     50 H30        -1.3602   12.9550   19.5533 H           1 STE       0.0265
     51 H31         0.2183   11.1286   19.1392 H           1 STE       0.0263
     52 H32        -1.2827   10.7940   18.2976 H           1 STE       0.0263
     53 H33        -0.3443    8.7530   19.3507 H           1 STE       0.0230
     54 H34        -1.9112    9.1244   20.0571 H           1 STE       0.0230
     55 H35        -0.4245    9.5092   20.9471 H           1 STE       0.0230
@<TRIPOS>BOND
     1     1     2  ar
     2     1     3  ar
     3     1     4   1
     4     4     5   1
     5     5     6   1
     6     6     7   1
     7     7     8   1
     8     8     9   1
     9     9    10   1
    10    10    11   1
    11    11    12   1
    12    12    13   1
    13    13    14   1
    14    14    15   1
    15    15    16   1
    16    16    17   1
    17    17    18   1
    18    18    19   1
    19    19    20   1
    20     4    21   1
    21     4    22   1
    22     5    23   1
    23     5    24   1
    24     6    25   1
    25     6    26   1
    26     7    27   1
    27     7    28   1
    28     8    29   1
    29     8    30   1
    30     9    31   1
    31     9    32   1
    32    10    33   1
    33    10    34   1
    34    11    35   1
    35    11    36   1
    36    12    37   1
    37    12    38   1
    38    13    39   1
    39    13    40   1
    40    14    41   1
    41    14    42   1
    42    15    43   1
    43    15    44   1
    44    16    45   1
    45    16    46   1
    46    17    47   1
    47    17    48   1
    48    18    49   1
    49    18    50   1
    50    19    51   1
    51    19    52   1
    52    20    53   1
    53    20    54   1
    54    20    55   1
@<TRIPOS>SUBSTRUCTURE
     1  STE      1

