@<TRIPOS>MOLECULE
3uex_ligand_036
    55    54
SMALL
GAST_HUCK
****
This file was generated by PARSER (from files_GN.cpp)

@<TRIPOS>ATOM
      1 C1        -11.3100    3.9982   22.0508 C.2         1 STE       0.0348
      2 O1        -11.3154    3.3767   23.2484 O.co2       1 STE      -0.5690
      3 O2        -10.8555    3.3258   20.9631 O.co2       1 STE      -0.5690
      4 C2        -11.9615    5.3095   21.8884 C.3         1 STE       0.0002
      5 C3        -11.3394    6.4608   22.7412 C.3         1 STE      -0.0414
      6 C4        -10.2096    7.2677   22.0486 C.3         1 STE      -0.0516
      7 C5         -9.0358    6.4114   21.5165 C.3         1 STE      -0.0530
      8 C6         -8.0176    7.2405   20.6966 C.3         1 STE      -0.0531
      9 C7         -7.0477    6.3689   19.8573 C.3         1 STE      -0.0531
     10 C8         -5.9568    7.1985   19.1168 C.3         1 STE      -0.0531
     11 C9         -5.6067    6.7418   17.6720 C.3         1 STE      -0.0531
     12 C10        -4.6720    5.5067   17.5271 C.3         1 STE      -0.0531
     13 C11        -5.3403    4.1076   17.6129 C.3         1 STE      -0.0531
     14 C12        -6.3862    3.8012   16.4995 C.3         1 STE      -0.0531
     15 C13        -6.4606    2.3052   16.0823 C.3         1 STE      -0.0531
     16 C14        -6.6870    1.3038   17.2579 C.3         1 STE      -0.0531
     17 C15        -5.6559    0.1384   17.3029 C.3         1 STE      -0.0531
     18 C16        -5.4805   -0.5230   18.6936 C.3         1 STE      -0.0533
     19 C17        -6.7650   -0.8519   19.5055 C.3         1 STE      -0.0559
     20 C18        -7.7578   -1.7925   18.7871 C.3         1 STE      -0.0653
     21 H1        -13.0080    5.1786   22.1723 H           1 STE       0.0430
     22 H2        -11.9472    5.5940   20.8349 H           1 STE       0.0430
     23 H3        -10.9709    6.0650   23.6912 H           1 STE       0.0283
     24 H4        -12.1373    7.1661   22.9808 H           1 STE       0.0283
     25 H5         -9.8203    8.0005   22.7669 H           1 STE       0.0266
     26 H6        -10.6475    7.8359   21.2189 H           1 STE       0.0266
     27 H7         -9.4385    5.6296   20.8755 H           1 STE       0.0265
     28 H8         -8.5265    5.9284   22.3534 H           1 STE       0.0265
     29 H9         -7.4455    7.8730   21.3834 H           1 STE       0.0265
     30 H10        -8.5552    7.9034   20.0060 H           1 STE       0.0265
     31 H11        -7.6433    5.8160   19.1254 H           1 STE       0.0265
     32 H12        -6.5639    5.6358   20.5106 H           1 STE       0.0265
     33 H13        -5.0422    7.2333   19.7207 H           1 STE       0.0265
     34 H14        -6.3041    8.2336   19.0265 H           1 STE       0.0265
     35 H15        -5.0832    7.5770   17.1978 H           1 STE       0.0265
     36 H16        -6.5257    6.5901   17.1020 H           1 STE       0.0265
     37 H17        -3.8853    5.5629   18.2895 H           1 STE       0.0265
     38 H18        -4.1710    5.5694   16.5534 H           1 STE       0.0265
     39 H19        -5.8081    4.0037   18.5926 H           1 STE       0.0265
     40 H20        -4.5338    3.3694   17.5622 H           1 STE       0.0265
     41 H21        -6.1428    4.3767   15.6018 H           1 STE       0.0265
     42 H22        -7.3741    4.1232   16.8358 H           1 STE       0.0265
     43 H23        -5.5396    2.0735   15.5391 H           1 STE       0.0265
     44 H24        -7.2768    2.1916   15.3613 H           1 STE       0.0265
     45 H25        -7.6874    0.8779   17.1695 H           1 STE       0.0265
     46 H26        -6.6583    1.8263   18.2153 H           1 STE       0.0265
     47 H27        -4.6678    0.5073   17.0093 H           1 STE       0.0265
     48 H28        -5.9458   -0.6181   16.5738 H           1 STE       0.0265
     49 H29        -4.8670    0.1433   19.3118 H           1 STE       0.0265
     50 H30        -4.9088   -1.4506   18.5644 H           1 STE       0.0265
     51 H31        -7.2826    0.0707   19.7681 H           1 STE       0.0263
     52 H32        -6.4645   -1.3316   20.4383 H           1 STE       0.0263
     53 H33        -8.6131   -1.9885   19.4370 H           1 STE       0.0230
     54 H34        -7.2771   -2.7426   18.5449 H           1 STE       0.0230
     55 H35        -8.1302   -1.3398   17.8675 H           1 STE       0.0230
@<TRIPOS>BOND
     1     1     2  ar
     2     1     3  ar
     3     1     4   1
     4     4     5   1
     5     5     6   1
     6     6     7   1
     7     7     8   1
     8     8     9   1
     9     9    10   1
    10    10    11   1
    11    11    12   1
    12    12    13   1
    13    13    14   1
    14    14    15   1
    15    15    16   1
    16    16    17   1
    17    17    18   1
    18    18    19   1
    19    19    20   1
    20     4    21   1
    21     4    22   1
    22     5    23   1
    23     5    24   1
    24     6    25   1
    25     6    26   1
    26     7    27   1
    27     7    28   1
    28     8    29   1
    29     8    30   1
    30     9    31   1
    31     9    32   1
    32    10    33   1
    33    10    34   1
    34    11    35   1
    35    11    36   1
    36    12    37   1
    37    12    38   1
    38    13    39   1
    39    13    40   1
    40    14    41   1
    41    14    42   1
    42    15    43   1
    43    15    44   1
    44    16    45   1
    45    16    46   1
    46    17    47   1
    47    17    48   1
    48    18    49   1
    49    18    50   1
    50    19    51   1
    51    19    52   1
    52    20    53   1
    53    20    54   1
    54    20    55   1
@<TRIPOS>SUBSTRUCTURE
     1  STE      1

