@<TRIPOS>MOLECULE
3uex_ligand_033
    55    54
SMALL
GAST_HUCK
****
This file was generated by PARSER (from files_GN.cpp)

@<TRIPOS>ATOM
      1 C1         -5.0638   -0.3742   15.1124 C.2         1 STE       0.0348
      2 O1         -4.1614   -1.3396   15.3994 O.co2       1 STE      -0.5690
      3 O2         -5.0991    0.0585   13.8325 O.co2       1 STE      -0.5690
      4 C2         -5.4984    0.5592   16.1647 C.3         1 STE       0.0002
      5 C3         -5.8069   -0.1247   17.5266 C.3         1 STE      -0.0414
      6 C4         -6.1561    0.8798   18.6633 C.3         1 STE      -0.0516
      7 C5         -7.5907    1.4992   18.6088 C.3         1 STE      -0.0530
      8 C6         -7.6247    3.0473   18.7773 C.3         1 STE      -0.0531
      9 C7         -7.1596    3.8455   17.5159 C.3         1 STE      -0.0531
     10 C8         -6.0702    4.9208   17.7749 C.3         1 STE      -0.0531
     11 C9         -6.5515    6.1867   18.5572 C.3         1 STE      -0.0531
     12 C10        -6.3219    7.5591   17.8331 C.3         1 STE      -0.0531
     13 C11        -5.9459    8.7454   18.7762 C.3         1 STE      -0.0531
     14 C12        -4.4255    9.0722   18.9189 C.3         1 STE      -0.0531
     15 C13        -3.4435    7.8907   18.6413 C.3         1 STE      -0.0531
     16 C14        -2.0892    7.9542   19.4016 C.3         1 STE      -0.0531
     17 C15        -2.1731    8.1973   20.9389 C.3         1 STE      -0.0531
     18 C16        -3.1581    7.3073   21.7620 C.3         1 STE      -0.0533
     19 C17        -2.9681    5.7677   21.6453 C.3         1 STE      -0.0559
     20 C18        -1.7027    5.2244   22.3498 C.3         1 STE      -0.0653
     21 H1         -6.3971    1.0681   15.8144 H           1 STE       0.0430
     22 H2         -4.7116    1.3038   16.3002 H           1 STE       0.0430
     23 H3         -4.9232   -0.6852   17.8454 H           1 STE       0.0283
     24 H4         -6.6274   -0.8380   17.4080 H           1 STE       0.0283
     25 H5         -5.3940    1.6663   18.6677 H           1 STE       0.0266
     26 H6         -6.0502    0.3493   19.6156 H           1 STE       0.0266
     27 H7         -8.1842    1.0613   19.4171 H           1 STE       0.0265
     28 H8         -8.0996    1.2346   17.6769 H           1 STE       0.0265
     29 H9         -7.0228    3.3145   19.6517 H           1 STE       0.0265
     30 H10        -8.6532    3.3407   19.0081 H           1 STE       0.0265
     31 H11        -8.0222    4.3296   17.0512 H           1 STE       0.0265
     32 H12        -6.7531    3.1605   16.7690 H           1 STE       0.0265
     33 H13        -5.6623    5.2007   16.8005 H           1 STE       0.0265
     34 H14        -5.2475    4.4444   18.3237 H           1 STE       0.0265
     35 H15        -6.0541    6.1787   19.5304 H           1 STE       0.0265
     36 H16        -7.6201    6.0993   18.7838 H           1 STE       0.0265
     37 H17        -7.2497    7.8203   17.3138 H           1 STE       0.0265
     38 H18        -5.5574    7.4756   17.0620 H           1 STE       0.0265
     39 H19        -6.3608    8.5637   19.7710 H           1 STE       0.0265
     40 H20        -6.4307    9.6548   18.4020 H           1 STE       0.0265
     41 H21        -4.2653    9.4538   19.9339 H           1 STE       0.0265
     42 H22        -4.1685    9.8883   18.2347 H           1 STE       0.0265
     43 H23        -3.2249    7.8606   17.5681 H           1 STE       0.0265
     44 H24        -3.9063    6.9371   18.8930 H           1 STE       0.0265
     45 H25        -1.4719    8.7455   18.9553 H           1 STE       0.0265
     46 H26        -1.5653    7.0042   19.2375 H           1 STE       0.0265
     47 H27        -2.4701    9.2384   21.0946 H           1 STE       0.0265
     48 H28        -1.1646    8.0836   21.3546 H           1 STE       0.0265
     49 H29        -4.1807    7.5465   21.4599 H           1 STE       0.0265
     50 H30        -3.0758    7.5871   22.8167 H           1 STE       0.0265
     51 H31        -2.9456    5.4706   20.5915 H           1 STE       0.0263
     52 H32        -3.8394    5.2851   22.1015 H           1 STE       0.0263
     53 H33        -1.6855    4.1348   22.2777 H           1 STE       0.0230
     54 H34        -1.7061    5.5036   23.4050 H           1 STE       0.0230
     55 H35        -0.8012    5.6192   21.8770 H           1 STE       0.0230
@<TRIPOS>BOND
     1     1     2  ar
     2     1     3  ar
     3     1     4   1
     4     4     5   1
     5     5     6   1
     6     6     7   1
     7     7     8   1
     8     8     9   1
     9     9    10   1
    10    10    11   1
    11    11    12   1
    12    12    13   1
    13    13    14   1
    14    14    15   1
    15    15    16   1
    16    16    17   1
    17    17    18   1
    18    18    19   1
    19    19    20   1
    20     4    21   1
    21     4    22   1
    22     5    23   1
    23     5    24   1
    24     6    25   1
    25     6    26   1
    26     7    27   1
    27     7    28   1
    28     8    29   1
    29     8    30   1
    30     9    31   1
    31     9    32   1
    32    10    33   1
    33    10    34   1
    34    11    35   1
    35    11    36   1
    36    12    37   1
    37    12    38   1
    38    13    39   1
    39    13    40   1
    40    14    41   1
    41    14    42   1
    42    15    43   1
    43    15    44   1
    44    16    45   1
    45    16    46   1
    46    17    47   1
    47    17    48   1
    48    18    49   1
    49    18    50   1
    50    19    51   1
    51    19    52   1
    52    20    53   1
    53    20    54   1
    54    20    55   1
@<TRIPOS>SUBSTRUCTURE
     1  STE      1

