@<TRIPOS>MOLECULE
3uex_ligand_038
    55    54
SMALL
GAST_HUCK
****
This file was generated by PARSER (from files_GN.cpp)

@<TRIPOS>ATOM
      1 C1         -4.2985   -0.4727   15.0784 C.2         1 STE       0.0348
      2 O1         -5.1896    0.2155   14.3228 O.co2       1 STE      -0.5690
      3 O2         -4.7515   -1.0368   16.2208 O.co2       1 STE      -0.5690
      4 C2         -2.8542   -0.2322   14.9023 C.3         1 STE       0.0002
      5 C3         -2.3324    0.9664   15.7286 C.3         1 STE      -0.0414
      6 C4         -2.9782    2.3288   15.3468 C.3         1 STE      -0.0516
      7 C5         -2.6968    3.4222   16.4026 C.3         1 STE      -0.0530
      8 C6         -3.5749    4.6957   16.2211 C.3         1 STE      -0.0531
      9 C7         -3.6513    5.5111   17.5423 C.3         1 STE      -0.0531
     10 C8         -4.0491    7.0027   17.3710 C.3         1 STE      -0.0531
     11 C9         -3.6429    7.8721   18.6018 C.3         1 STE      -0.0531
     12 C10        -4.5966    7.7583   19.8409 C.3         1 STE      -0.0531
     13 C11        -3.8877    7.5954   21.2259 C.3         1 STE      -0.0531
     14 C12        -3.1407    6.2459   21.4648 C.3         1 STE      -0.0531
     15 C13        -4.0246    4.9622   21.3635 C.3         1 STE      -0.0531
     16 C14        -3.2701    3.5941   21.3810 C.3         1 STE      -0.0531
     17 C15        -1.9312    3.5345   20.5713 C.3         1 STE      -0.0531
     18 C16        -0.6871    3.8772   21.4483 C.3         1 STE      -0.0533
     19 C17         0.5630    4.3642   20.6641 C.3         1 STE      -0.0559
     20 C18         0.4843    5.8326   20.1849 C.3         1 STE      -0.0653
     21 H1         -2.6345   -0.0745   13.8451 H           1 STE       0.0430
     22 H2         -2.3237   -1.1357   15.2122 H           1 STE       0.0430
     23 H3         -1.2574    1.0448   15.5698 H           1 STE       0.0283
     24 H4         -2.4922    0.7668   16.7896 H           1 STE       0.0283
     25 H5         -4.0612    2.2141   15.2586 H           1 STE       0.0266
     26 H6         -2.5862    2.6516   14.3781 H           1 STE       0.0266
     27 H7         -1.6441    3.7213   16.3489 H           1 STE       0.0265
     28 H8         -2.8817    2.9962   17.3949 H           1 STE       0.0265
     29 H9         -4.5927    4.4094   15.9411 H           1 STE       0.0265
     30 H10        -3.1643    5.3177   15.4166 H           1 STE       0.0265
     31 H11        -2.6834    5.4584   18.0531 H           1 STE       0.0265
     32 H12        -4.3889    5.0324   18.1816 H           1 STE       0.0265
     33 H13        -5.1333    7.0767   17.2082 H           1 STE       0.0265
     34 H14        -3.5442    7.3974   16.4795 H           1 STE       0.0265
     35 H15        -3.6289    8.9206   18.2735 H           1 STE       0.0265
     36 H16        -2.6120    7.6188   18.8748 H           1 STE       0.0265
     37 H17        -5.3244    6.9466   19.7075 H           1 STE       0.0265
     38 H18        -5.1838    8.6866   19.8878 H           1 STE       0.0265
     39 H19        -4.6349    7.7331   22.0179 H           1 STE       0.0265
     40 H20        -3.1549    8.4056   21.3269 H           1 STE       0.0265
     41 H21        -2.7109    6.2846   22.4749 H           1 STE       0.0265
     42 H22        -2.3150    6.1852   20.7474 H           1 STE       0.0265
     43 H23        -4.6168    5.0054   20.4492 H           1 STE       0.0265
     44 H24        -4.7291    4.9635   22.2054 H           1 STE       0.0265
     45 H25        -3.9545    2.8517   20.9522 H           1 STE       0.0265
     46 H26        -3.0941    3.2889   22.4209 H           1 STE       0.0265
     47 H27        -1.9977    4.2021   19.7027 H           1 STE       0.0265
     48 H28        -1.7999    2.5119   20.1874 H           1 STE       0.0265
     49 H29        -0.4081    2.9663   21.9887 H           1 STE       0.0265
     50 H30        -0.9413    4.6355   22.1973 H           1 STE       0.0265
     51 H31         0.7441    3.7101   19.8044 H           1 STE       0.0263
     52 H32         1.4280    4.2867   21.3286 H           1 STE       0.0263
     53 H33         1.4381    6.1314   19.7394 H           1 STE       0.0230
     54 H34         0.2769    6.5061   21.0235 H           1 STE       0.0230
     55 H35        -0.2962    5.9591   19.4304 H           1 STE       0.0230
@<TRIPOS>BOND
     1     1     2  ar
     2     1     3  ar
     3     1     4   1
     4     4     5   1
     5     5     6   1
     6     6     7   1
     7     7     8   1
     8     8     9   1
     9     9    10   1
    10    10    11   1
    11    11    12   1
    12    12    13   1
    13    13    14   1
    14    14    15   1
    15    15    16   1
    16    16    17   1
    17    17    18   1
    18    18    19   1
    19    19    20   1
    20     4    21   1
    21     4    22   1
    22     5    23   1
    23     5    24   1
    24     6    25   1
    25     6    26   1
    26     7    27   1
    27     7    28   1
    28     8    29   1
    29     8    30   1
    30     9    31   1
    31     9    32   1
    32    10    33   1
    33    10    34   1
    34    11    35   1
    35    11    36   1
    36    12    37   1
    37    12    38   1
    38    13    39   1
    39    13    40   1
    40    14    41   1
    41    14    42   1
    42    15    43   1
    43    15    44   1
    44    16    45   1
    45    16    46   1
    46    17    47   1
    47    17    48   1
    48    18    49   1
    49    18    50   1
    50    19    51   1
    51    19    52   1
    52    20    53   1
    53    20    54   1
    54    20    55   1
@<TRIPOS>SUBSTRUCTURE
     1  STE      1

