@<TRIPOS>MOLECULE
3uex_ligand_055
    55    54
SMALL
GAST_HUCK
****
This file was generated by PARSER (from files_GN.cpp)

@<TRIPOS>ATOM
      1 C1        -11.2060    2.8842   21.1821 C.2         1 STE       0.0348
      2 O1        -11.3256    2.7348   19.8438 O.co2       1 STE      -0.5690
      3 O2        -11.5203    1.8404   21.9817 O.co2       1 STE      -0.5690
      4 C2        -10.8976    4.2021   21.7681 C.3         1 STE       0.0002
      5 C3         -9.5815    4.2225   22.5902 C.3         1 STE      -0.0414
      6 C4         -8.2646    3.9740   21.7965 C.3         1 STE      -0.0516
      7 C5         -7.9431    5.0475   20.7161 C.3         1 STE      -0.0530
      8 C6         -6.4698    5.0234   20.2110 C.3         1 STE      -0.0531
      9 C7         -6.1942    6.1152   19.1328 C.3         1 STE      -0.0531
     10 C8         -4.7227    6.2225   18.6355 C.3         1 STE      -0.0531
     11 C9         -3.6591    6.7628   19.6379 C.3         1 STE      -0.0531
     12 C10        -3.7851    8.2764   19.9758 C.3         1 STE      -0.0531
     13 C11        -2.6322    8.8320   20.8678 C.3         1 STE      -0.0531
     14 C12        -1.3400    9.2707   20.1144 C.3         1 STE      -0.0531
     15 C13        -1.3985   10.6865   19.4653 C.3         1 STE      -0.0531
     16 C14        -1.2540   11.8923   20.4553 C.3         1 STE      -0.0531
     17 C15        -2.3861   12.9602   20.3941 C.3         1 STE      -0.0531
     18 C16        -2.5524   13.7220   19.0471 C.3         1 STE      -0.0533
     19 C17        -1.4689   14.7875   18.7135 C.3         1 STE      -0.0559
     20 C18        -1.7103   16.1713   19.3550 C.3         1 STE      -0.0653
     21 H1        -11.7257    4.4754   22.4276 H           1 STE       0.0430
     22 H2        -10.8494    4.9564   20.9790 H           1 STE       0.0430
     23 H3         -9.6548    3.4720   23.3835 H           1 STE       0.0283
     24 H4         -9.5081    5.1981   23.0790 H           1 STE       0.0283
     25 H5         -8.3048    2.9900   21.3230 H           1 STE       0.0266
     26 H6         -7.4478    3.9522   22.5238 H           1 STE       0.0266
     27 H7         -8.1414    6.0388   21.1351 H           1 STE       0.0265
     28 H8         -8.6106    4.8938   19.8627 H           1 STE       0.0265
     29 H9         -6.2483    4.0393   19.7856 H           1 STE       0.0265
     30 H10        -5.8035    5.1795   21.0638 H           1 STE       0.0265
     31 H11        -6.5183    7.0855   19.5133 H           1 STE       0.0265
     32 H12        -6.8210    5.8831   18.2667 H           1 STE       0.0265
     33 H13        -4.7152    6.8723   17.7543 H           1 STE       0.0265
     34 H14        -4.4072    5.2310   18.3003 H           1 STE       0.0265
     35 H15        -2.6733    6.5867   19.1995 H           1 STE       0.0265
     36 H16        -3.7070    6.1854   20.5646 H           1 STE       0.0265
     37 H17        -4.7244    8.4209   20.5124 H           1 STE       0.0265
     38 H18        -3.8476    8.8551   19.0503 H           1 STE       0.0265
     39 H19        -2.3585    8.0666   21.6019 H           1 STE       0.0265
     40 H20        -3.0126    9.6853   21.4358 H           1 STE       0.0265
     41 H21        -1.1228    8.5354   19.3358 H           1 STE       0.0265
     42 H22        -0.4981    9.2488   20.8107 H           1 STE       0.0265
     43 H23        -2.3263   10.7599   18.8996 H           1 STE       0.0265
     44 H24        -0.5846   10.7483   18.7367 H           1 STE       0.0265
     45 H25        -0.2898   12.3814   20.2955 H           1 STE       0.0265
     46 H26        -1.2308   11.5221   21.4826 H           1 STE       0.0265
     47 H27        -2.2203   13.6896   21.1931 H           1 STE       0.0265
     48 H28        -3.3259   12.4471   20.6186 H           1 STE       0.0265
     49 H29        -3.5322   14.2035   19.0540 H           1 STE       0.0265
     50 H30        -2.5763   12.9981   18.2344 H           1 STE       0.0265
     51 H31        -1.4454   14.9270   17.6281 H           1 STE       0.0263
     52 H32        -0.4830   14.4229   19.0108 H           1 STE       0.0263
     53 H33        -0.8952   16.8466   19.0871 H           1 STE       0.0230
     54 H34        -1.7530   16.0932   20.4404 H           1 STE       0.0230
     55 H35        -2.6479   16.5983   18.9913 H           1 STE       0.0230
@<TRIPOS>BOND
     1     1     2  ar
     2     1     3  ar
     3     1     4   1
     4     4     5   1
     5     5     6   1
     6     6     7   1
     7     7     8   1
     8     8     9   1
     9     9    10   1
    10    10    11   1
    11    11    12   1
    12    12    13   1
    13    13    14   1
    14    14    15   1
    15    15    16   1
    16    16    17   1
    17    17    18   1
    18    18    19   1
    19    19    20   1
    20     4    21   1
    21     4    22   1
    22     5    23   1
    23     5    24   1
    24     6    25   1
    25     6    26   1
    26     7    27   1
    27     7    28   1
    28     8    29   1
    29     8    30   1
    30     9    31   1
    31     9    32   1
    32    10    33   1
    33    10    34   1
    34    11    35   1
    35    11    36   1
    36    12    37   1
    37    12    38   1
    38    13    39   1
    39    13    40   1
    40    14    41   1
    41    14    42   1
    42    15    43   1
    43    15    44   1
    44    16    45   1
    45    16    46   1
    46    17    47   1
    47    17    48   1
    48    18    49   1
    49    18    50   1
    50    19    51   1
    51    19    52   1
    52    20    53   1
    53    20    54   1
    54    20    55   1
@<TRIPOS>SUBSTRUCTURE
     1  STE      1

