@<TRIPOS>MOLECULE
3uex_ligand_078
    55    54
SMALL
GAST_HUCK
****
This file was generated by PARSER (from files_GN.cpp)

@<TRIPOS>ATOM
      1 C1         -6.1189    0.7166   18.8361 C.2         1 STE       0.0348
      2 O1         -4.7674    0.7210   18.7233 O.co2       1 STE      -0.5690
      3 O2         -6.8192   -0.0998   18.0085 O.co2       1 STE      -0.5690
      4 C2         -6.8130    1.6458   19.7427 C.3         1 STE       0.0002
      5 C3         -6.3865    1.4980   21.2373 C.3         1 STE      -0.0414
      6 C4         -5.1138    2.3081   21.6249 C.3         1 STE      -0.0516
      7 C5         -5.3917    3.8059   21.9700 C.3         1 STE      -0.0530
      8 C6         -4.2814    4.7997   21.5166 C.3         1 STE      -0.0531
      9 C7         -4.3343    5.1166   19.9927 C.3         1 STE      -0.0531
     10 C8         -3.5199    6.3641   19.5278 C.3         1 STE      -0.0531
     11 C9         -4.0661    7.7196   20.0722 C.3         1 STE      -0.0531
     12 C10        -4.0650    8.9030   19.0558 C.3         1 STE      -0.0531
     13 C11        -2.7748    9.1583   18.2337 C.3         1 STE      -0.0531
     14 C12        -1.4093    9.1275   19.0013 C.3         1 STE      -0.0531
     15 C13        -1.2608   10.0365   20.2593 C.3         1 STE      -0.0531
     16 C14        -0.9530   11.5528   20.0418 C.3         1 STE      -0.0531
     17 C15        -2.0346   12.3494   19.2590 C.3         1 STE      -0.0531
     18 C16        -2.0166   13.8681   19.6039 C.3         1 STE      -0.0533
     19 C17        -3.1412   14.7061   18.9215 C.3         1 STE      -0.0559
     20 C18        -3.0531   14.7528   17.3763 C.3         1 STE      -0.0653
     21 H1         -7.8908    1.4689   19.6739 H           1 STE       0.0430
     22 H2         -6.6298    2.6679   19.4011 H           1 STE       0.0430
     23 H3         -6.2090    0.4419   21.4571 H           1 STE       0.0283
     24 H4         -7.2135    1.8199   21.8780 H           1 STE       0.0283
     25 H5         -4.3789    2.2371   20.8209 H           1 STE       0.0266
     26 H6         -4.6582    1.8474   22.5073 H           1 STE       0.0266
     27 H7         -5.5051    3.8904   23.0555 H           1 STE       0.0265
     28 H8         -6.3471    4.1350   21.5395 H           1 STE       0.0265
     29 H9         -3.2934    4.4097   21.7863 H           1 STE       0.0265
     30 H10        -4.4228    5.7346   22.0738 H           1 STE       0.0265
     31 H11        -5.3791    5.2834   19.7038 H           1 STE       0.0265
     32 H12        -3.9751    4.2437   19.4329 H           1 STE       0.0265
     33 H13        -3.5502    6.3690   18.4301 H           1 STE       0.0265
     34 H14        -2.4715    6.2403   19.8322 H           1 STE       0.0265
     35 H15        -3.4848    8.0086   20.9618 H           1 STE       0.0265
     36 H16        -5.1101    7.5915   20.3931 H           1 STE       0.0265
     37 H17        -4.3175    9.8151   19.6038 H           1 STE       0.0265
     38 H18        -4.8793    8.7248   18.3389 H           1 STE       0.0265
     39 H19        -2.8749   10.1279   17.7411 H           1 STE       0.0265
     40 H20        -2.7185    8.4079   17.4402 H           1 STE       0.0265
     41 H21        -0.6058    9.3819   18.2917 H           1 STE       0.0265
     42 H22        -1.2418    8.0914   19.3232 H           1 STE       0.0265
     43 H23        -0.4159    9.6380   20.8417 H           1 STE       0.0265
     44 H24        -2.1555    9.9476   20.8978 H           1 STE       0.0265
     45 H25         0.0201   11.6584   19.5353 H           1 STE       0.0265
     46 H26        -0.8532   11.9904   21.0500 H           1 STE       0.0265
     47 H27        -3.0326   11.9585   19.5005 H           1 STE       0.0265
     48 H28        -1.8555   12.2219   18.1840 H           1 STE       0.0265
     49 H29        -1.0414   14.2953   19.3446 H           1 STE       0.0265
     50 H30        -2.1574   13.9721   20.6904 H           1 STE       0.0265
     51 H31        -3.0657   15.7324   19.2990 H           1 STE       0.0263
     52 H32        -4.1195   14.3092   19.2188 H           1 STE       0.0263
     53 H33        -3.7829   15.4811   16.9964 H           1 STE       0.0230
     54 H34        -3.2903   13.7748   16.9514 H           1 STE       0.0230
     55 H35        -2.0467   15.0566   17.0589 H           1 STE       0.0230
@<TRIPOS>BOND
     1     1     2  ar
     2     1     3  ar
     3     1     4   1
     4     4     5   1
     5     5     6   1
     6     6     7   1
     7     7     8   1
     8     8     9   1
     9     9    10   1
    10    10    11   1
    11    11    12   1
    12    12    13   1
    13    13    14   1
    14    14    15   1
    15    15    16   1
    16    16    17   1
    17    17    18   1
    18    18    19   1
    19    19    20   1
    20     4    21   1
    21     4    22   1
    22     5    23   1
    23     5    24   1
    24     6    25   1
    25     6    26   1
    26     7    27   1
    27     7    28   1
    28     8    29   1
    29     8    30   1
    30     9    31   1
    31     9    32   1
    32    10    33   1
    33    10    34   1
    34    11    35   1
    35    11    36   1
    36    12    37   1
    37    12    38   1
    38    13    39   1
    39    13    40   1
    40    14    41   1
    41    14    42   1
    42    15    43   1
    43    15    44   1
    44    16    45   1
    45    16    46   1
    46    17    47   1
    47    17    48   1
    48    18    49   1
    49    18    50   1
    50    19    51   1
    51    19    52   1
    52    20    53   1
    53    20    54   1
    54    20    55   1
@<TRIPOS>SUBSTRUCTURE
     1  STE      1

