@<TRIPOS>MOLECULE
3uex_ligand_034
    55    54
SMALL
GAST_HUCK
****
This file was generated by PARSER (from files_GN.cpp)

@<TRIPOS>ATOM
      1 C1         -4.1888   -1.0693   13.7239 C.2         1 STE       0.0348
      2 O1         -5.0732   -0.0620   13.5939 O.co2       1 STE      -0.5690
      3 O2         -4.1704   -2.0295   12.7631 O.co2       1 STE      -0.5690
      4 C2         -3.4759   -1.2790   14.9960 C.3         1 STE       0.0002
      5 C3         -2.9728    0.0335   15.6701 C.3         1 STE      -0.0414
      6 C4         -4.0022    1.1746   15.9182 C.3         1 STE      -0.0516
      7 C5         -5.3669    0.6981   16.4940 C.3         1 STE      -0.0530
      8 C6         -6.5187    1.7401   16.4418 C.3         1 STE      -0.0531
      9 C7         -6.0590    3.2211   16.5642 C.3         1 STE      -0.0531
     10 C8         -7.2099    4.1492   17.0363 C.3         1 STE      -0.0531
     11 C9         -6.8054    5.1076   18.1856 C.3         1 STE      -0.0531
     12 C10        -5.9445    6.3353   17.7675 C.3         1 STE      -0.0531
     13 C11        -5.3612    7.1495   18.9660 C.3         1 STE      -0.0531
     14 C12        -6.2347    7.2419   20.2486 C.3         1 STE      -0.0531
     15 C13        -7.5961    7.9661   20.0488 C.3         1 STE      -0.0531
     16 C14        -8.4767    8.0423   21.3279 C.3         1 STE      -0.0531
     17 C15        -9.2953    6.7573   21.6499 C.3         1 STE      -0.0531
     18 C16       -10.7903    7.0560   21.9544 C.3         1 STE      -0.0533
     19 C17       -11.5320    5.9375   22.7261 C.3         1 STE      -0.0559
     20 C18       -11.4146    4.5221   22.1077 C.3         1 STE      -0.0653
     21 H1         -2.6102   -1.9184   14.8223 H           1 STE       0.0430
     22 H2         -4.1290   -1.8209   15.6810 H           1 STE       0.0430
     23 H3         -2.1644    0.4426   15.0560 H           1 STE       0.0283
     24 H4         -2.5422   -0.2383   16.6410 H           1 STE       0.0283
     25 H5         -4.1658    1.7274   14.9884 H           1 STE       0.0266
     26 H6         -3.5604    1.8738   16.6332 H           1 STE       0.0266
     27 H7         -5.2192    0.3810   17.5367 H           1 STE       0.0265
     28 H8         -5.7197   -0.1713   15.9333 H           1 STE       0.0265
     29 H9         -7.1890    1.5009   17.2759 H           1 STE       0.0265
     30 H10        -7.0893    1.6105   15.5159 H           1 STE       0.0265
     31 H11        -5.6960    3.5597   15.5887 H           1 STE       0.0265
     32 H12        -5.2345    3.2762   17.2812 H           1 STE       0.0265
     33 H13        -8.0337    3.5293   17.4127 H           1 STE       0.0265
     34 H14        -7.5949    4.7249   16.1893 H           1 STE       0.0265
     35 H15        -6.2734    4.5314   18.9507 H           1 STE       0.0265
     36 H16        -7.7307    5.4731   18.6308 H           1 STE       0.0265
     37 H17        -6.5486    6.9940   17.1370 H           1 STE       0.0265
     38 H18        -5.0973    6.0009   17.1632 H           1 STE       0.0265
     39 H19        -5.1395    8.1651   18.6151 H           1 STE       0.0265
     40 H20        -4.4100    6.6922   19.2548 H           1 STE       0.0265
     41 H21        -5.6709    7.7829   21.0141 H           1 STE       0.0265
     42 H22        -6.4013    6.2324   20.6287 H           1 STE       0.0265
     43 H23        -8.1742    7.4777   19.2627 H           1 STE       0.0265
     44 H24        -7.3937    8.9853   19.7080 H           1 STE       0.0265
     45 H25        -9.1702    8.8752   21.1792 H           1 STE       0.0265
     46 H26        -7.8484    8.2837   22.1900 H           1 STE       0.0265
     47 H27        -8.8503    6.2476   22.5031 H           1 STE       0.0265
     48 H28        -9.2501    6.0753   20.8008 H           1 STE       0.0265
     49 H29       -11.3149    7.2368   21.0153 H           1 STE       0.0265
     50 H30       -10.8550    7.9725   22.5488 H           1 STE       0.0265
     51 H31       -12.5931    6.2033   22.7580 H           1 STE       0.0263
     52 H32       -11.1717    5.8989   23.7576 H           1 STE       0.0263
     53 H33       -12.0766    3.8347   22.6297 H           1 STE       0.0230
     54 H34       -10.3945    4.1471   22.1977 H           1 STE       0.0230
     55 H35       -11.7016    4.5457   21.0542 H           1 STE       0.0230
@<TRIPOS>BOND
     1     1     2  ar
     2     1     3  ar
     3     1     4   1
     4     4     5   1
     5     5     6   1
     6     6     7   1
     7     7     8   1
     8     8     9   1
     9     9    10   1
    10    10    11   1
    11    11    12   1
    12    12    13   1
    13    13    14   1
    14    14    15   1
    15    15    16   1
    16    16    17   1
    17    17    18   1
    18    18    19   1
    19    19    20   1
    20     4    21   1
    21     4    22   1
    22     5    23   1
    23     5    24   1
    24     6    25   1
    25     6    26   1
    26     7    27   1
    27     7    28   1
    28     8    29   1
    29     8    30   1
    30     9    31   1
    31     9    32   1
    32    10    33   1
    33    10    34   1
    34    11    35   1
    35    11    36   1
    36    12    37   1
    37    12    38   1
    38    13    39   1
    39    13    40   1
    40    14    41   1
    41    14    42   1
    42    15    43   1
    43    15    44   1
    44    16    45   1
    45    16    46   1
    46    17    47   1
    47    17    48   1
    48    18    49   1
    49    18    50   1
    50    19    51   1
    51    19    52   1
    52    20    53   1
    53    20    54   1
    54    20    55   1
@<TRIPOS>SUBSTRUCTURE
     1  STE      1

