@<TRIPOS>MOLECULE
3uex_ligand_028
    55    54
SMALL
GAST_HUCK
****
This file was generated by PARSER (from files_GN.cpp)

@<TRIPOS>ATOM
      1 C1         -3.7668    0.0122   14.3680 C.2         1 STE       0.0348
      2 O1         -5.0805    0.2967   14.1825 O.co2       1 STE      -0.5690
      3 O2         -2.8375    0.5453   13.5345 O.co2       1 STE      -0.5690
      4 C2         -3.3716   -1.0267   15.3525 C.3         1 STE       0.0002
      5 C3         -3.2036   -0.4864   16.8114 C.3         1 STE      -0.0414
      6 C4         -4.2813    0.5133   17.3313 C.3         1 STE      -0.0516
      7 C5         -5.7480    0.0087   17.1814 C.3         1 STE      -0.0530
      8 C6         -6.8211    1.1352   17.1421 C.3         1 STE      -0.0531
      9 C7         -6.6154    2.2858   18.1727 C.3         1 STE      -0.0531
     10 C8         -7.6395    3.4429   17.9850 C.3         1 STE      -0.0531
     11 C9         -7.0999    4.8175   18.4818 C.3         1 STE      -0.0531
     12 C10        -6.5005    5.7021   17.3570 C.3         1 STE      -0.0531
     13 C11        -6.3129    7.2209   17.6811 C.3         1 STE      -0.0531
     14 C12        -6.9954    7.7969   18.9568 C.3         1 STE      -0.0531
     15 C13        -6.4290    7.3939   20.3528 C.3         1 STE      -0.0531
     16 C14        -4.9306    7.7349   20.6462 C.3         1 STE      -0.0531
     17 C15        -3.9231    6.5637   20.4452 C.3         1 STE      -0.0531
     18 C16        -2.5977    6.7140   21.2686 C.3         1 STE      -0.0533
     19 C17        -1.2857    6.5955   20.4405 C.3         1 STE      -0.0559
     20 C18        -0.7870    7.9408   19.8463 C.3         1 STE      -0.0653
     21 H1         -2.4074   -1.4633   15.0480 H           1 STE       0.0430
     22 H2         -4.1188   -1.8328   15.3438 H           1 STE       0.0430
     23 H3         -2.2317    0.0190   16.8721 H           1 STE       0.0283
     24 H4         -3.1673   -1.3510   17.4899 H           1 STE       0.0283
     25 H5         -4.1540    1.4685   16.8077 H           1 STE       0.0266
     26 H6         -4.0876    0.6978   18.3953 H           1 STE       0.0266
     27 H7         -5.9798   -0.6768   18.0056 H           1 STE       0.0265
     28 H8         -5.8517   -0.5467   16.2470 H           1 STE       0.0265
     29 H9         -7.8024    0.6718   17.3201 H           1 STE       0.0265
     30 H10        -6.8307    1.5778   16.1353 H           1 STE       0.0265
     31 H11        -5.5935    2.6791   18.0565 H           1 STE       0.0265
     32 H12        -6.7144    1.8800   19.1928 H           1 STE       0.0265
     33 H13        -8.5400    3.1901   18.5575 H           1 STE       0.0265
     34 H14        -7.9236    3.5217   16.9257 H           1 STE       0.0265
     35 H15        -6.3405    4.6466   19.2562 H           1 STE       0.0265
     36 H16        -7.9329    5.3600   18.9364 H           1 STE       0.0265
     37 H17        -7.1468    5.6104   16.4709 H           1 STE       0.0265
     38 H18        -5.5187    5.3035   17.0698 H           1 STE       0.0265
     39 H19        -6.7302    7.7585   16.8222 H           1 STE       0.0265
     40 H20        -5.2507    7.4555   17.6868 H           1 STE       0.0265
     41 H21        -8.0525    7.5284   18.9252 H           1 STE       0.0265
     42 H22        -6.9413    8.8906   18.8902 H           1 STE       0.0265
     43 H23        -6.6081    6.3294   20.5374 H           1 STE       0.0265
     44 H24        -7.0332    7.9428   21.0873 H           1 STE       0.0265
     45 H25        -4.8611    8.0341   21.7006 H           1 STE       0.0265
     46 H26        -4.6104    8.5892   20.0376 H           1 STE       0.0265
     47 H27        -3.6847    6.4592   19.3868 H           1 STE       0.0265
     48 H28        -4.3996    5.6245   20.7485 H           1 STE       0.0265
     49 H29        -2.5750    5.9230   22.0320 H           1 STE       0.0265
     50 H30        -2.5795    7.6646   21.8167 H           1 STE       0.0265
     51 H31        -1.4249    5.8746   19.6176 H           1 STE       0.0263
     52 H32        -0.4889    6.1983   21.0932 H           1 STE       0.0263
     53 H33         0.1333    7.7646   19.2709 H           1 STE       0.0230
     54 H34        -0.5653    8.6446   20.6610 H           1 STE       0.0230
     55 H35        -1.5474    8.3808   19.1817 H           1 STE       0.0230
@<TRIPOS>BOND
     1     1     2  ar
     2     1     3  ar
     3     1     4   1
     4     4     5   1
     5     5     6   1
     6     6     7   1
     7     7     8   1
     8     8     9   1
     9     9    10   1
    10    10    11   1
    11    11    12   1
    12    12    13   1
    13    13    14   1
    14    14    15   1
    15    15    16   1
    16    16    17   1
    17    17    18   1
    18    18    19   1
    19    19    20   1
    20     4    21   1
    21     4    22   1
    22     5    23   1
    23     5    24   1
    24     6    25   1
    25     6    26   1
    26     7    27   1
    27     7    28   1
    28     8    29   1
    29     8    30   1
    30     9    31   1
    31     9    32   1
    32    10    33   1
    33    10    34   1
    34    11    35   1
    35    11    36   1
    36    12    37   1
    37    12    38   1
    38    13    39   1
    39    13    40   1
    40    14    41   1
    41    14    42   1
    42    15    43   1
    43    15    44   1
    44    16    45   1
    45    16    46   1
    46    17    47   1
    47    17    48   1
    48    18    49   1
    49    18    50   1
    50    19    51   1
    51    19    52   1
    52    20    53   1
    53    20    54   1
    54    20    55   1
@<TRIPOS>SUBSTRUCTURE
     1  STE      1

