@<TRIPOS>MOLECULE
3uex_ligand_031
    55    54
SMALL
GAST_HUCK
****
This file was generated by PARSER (from files_GN.cpp)

@<TRIPOS>ATOM
      1 C1         -3.8521    0.2138   14.5139 C.2         1 STE       0.0348
      2 O1         -5.1910    0.2392   14.3018 O.co2       1 STE      -0.5690
      3 O2         -3.3430   -0.7002   15.3762 O.co2       1 STE      -0.5690
      4 C2         -2.9527    1.1287   13.7769 C.3         1 STE       0.0002
      5 C3         -2.3190    2.1807   14.7295 C.3         1 STE      -0.0414
      6 C4         -1.3171    3.1166   13.9896 C.3         1 STE      -0.0516
      7 C5         -0.4554    3.9615   14.9669 C.3         1 STE      -0.0530
      8 C6          0.7209    3.1721   15.6213 C.3         1 STE      -0.0531
      9 C7          1.2887    3.8907   16.8874 C.3         1 STE      -0.0531
     10 C8          0.5136    3.5935   18.2106 C.3         1 STE      -0.0531
     11 C9          0.2790    4.8479   19.1112 C.3         1 STE      -0.0531
     12 C10         0.2591    4.5945   20.6526 C.3         1 STE      -0.0531
     13 C11        -1.0078    3.8742   21.2292 C.3         1 STE      -0.0531
     14 C12        -1.0347    2.3202   21.1234 C.3         1 STE      -0.0531
     15 C13        -0.3768    1.5632   22.3209 C.3         1 STE      -0.0531
     16 C14        -0.5545    0.0215   22.2082 C.3         1 STE      -0.0531
     17 C15        -0.7413   -0.7409   23.5436 C.3         1 STE      -0.0531
     18 C16         0.4579   -0.8338   24.5295 C.3         1 STE      -0.0533
     19 C17         0.6708    0.3932   25.4497 C.3         1 STE      -0.0559
     20 C18         1.4065    0.0380   26.7609 C.3         1 STE      -0.0653
     21 H1         -3.5205    1.6447   12.9922 H           1 STE       0.0430
     22 H2         -2.1622    0.5345   13.3060 H           1 STE       0.0430
     23 H3         -1.7896    1.6623   15.5431 H           1 STE       0.0283
     24 H4         -3.1220    2.7977   15.1626 H           1 STE       0.0283
     25 H5         -1.8939    3.8007   13.3531 H           1 STE       0.0266
     26 H6         -0.6641    2.5221   13.3371 H           1 STE       0.0266
     27 H7         -1.0990    4.3840   15.7417 H           1 STE       0.0265
     28 H8         -0.0264    4.7934   14.4016 H           1 STE       0.0265
     29 H9          1.5245    3.0848   14.8734 H           1 STE       0.0265
     30 H10         0.3976    2.1555   15.8919 H           1 STE       0.0265
     31 H11         1.3151    4.9707   16.6950 H           1 STE       0.0265
     32 H12         2.3273    3.5625   17.0192 H           1 STE       0.0265
     33 H13         1.0880    2.8489   18.7788 H           1 STE       0.0265
     34 H14        -0.4667    3.1609   17.9790 H           1 STE       0.0265
     35 H15        -0.6719    5.3158   18.8134 H           1 STE       0.0265
     36 H16         1.0684    5.5849   18.9073 H           1 STE       0.0265
     37 H17         0.3110    5.5829   21.1246 H           1 STE       0.0265
     38 H18         1.1674    4.0569   20.9471 H           1 STE       0.0265
     39 H19        -1.9001    4.2852   20.7246 H           1 STE       0.0265
     40 H20        -1.0977    4.1461   22.2948 H           1 STE       0.0265
     41 H21        -0.5532    2.0116   20.1869 H           1 STE       0.0265
     42 H22        -2.0935    2.0251   21.0840 H           1 STE       0.0265
     43 H23        -0.8400    1.9316   23.2533 H           1 STE       0.0265
     44 H24         0.6958    1.7974   22.3560 H           1 STE       0.0265
     45 H25         0.3038   -0.3889   21.6661 H           1 STE       0.0265
     46 H26        -1.4504   -0.1819   21.6073 H           1 STE       0.0265
     47 H27        -1.0030   -1.7676   23.2714 H           1 STE       0.0265
     48 H28        -1.6080   -0.3302   24.0734 H           1 STE       0.0265
     49 H29         1.3759   -1.0383   23.9762 H           1 STE       0.0265
     50 H30         0.2725   -1.6989   25.1675 H           1 STE       0.0265
     51 H31        -0.2927    0.8294   25.7200 H           1 STE       0.0263
     52 H32         1.2475    1.1546   24.9286 H           1 STE       0.0263
     53 H33         1.5564    0.9263   27.3656 H           1 STE       0.0230
     54 H34         2.3752   -0.4038   26.5480 H           1 STE       0.0230
     55 H35         0.8233   -0.6671   27.3494 H           1 STE       0.0230
@<TRIPOS>BOND
     1     1     2  ar
     2     1     3  ar
     3     1     4   1
     4     4     5   1
     5     5     6   1
     6     6     7   1
     7     7     8   1
     8     8     9   1
     9     9    10   1
    10    10    11   1
    11    11    12   1
    12    12    13   1
    13    13    14   1
    14    14    15   1
    15    15    16   1
    16    16    17   1
    17    17    18   1
    18    18    19   1
    19    19    20   1
    20     4    21   1
    21     4    22   1
    22     5    23   1
    23     5    24   1
    24     6    25   1
    25     6    26   1
    26     7    27   1
    27     7    28   1
    28     8    29   1
    29     8    30   1
    30     9    31   1
    31     9    32   1
    32    10    33   1
    33    10    34   1
    34    11    35   1
    35    11    36   1
    36    12    37   1
    37    12    38   1
    38    13    39   1
    39    13    40   1
    40    14    41   1
    41    14    42   1
    42    15    43   1
    43    15    44   1
    44    16    45   1
    45    16    46   1
    46    17    47   1
    47    17    48   1
    48    18    49   1
    49    18    50   1
    50    19    51   1
    51    19    52   1
    52    20    53   1
    53    20    54   1
    54    20    55   1
@<TRIPOS>SUBSTRUCTURE
     1  STE      1

