@<TRIPOS>MOLECULE
3uex_ligand_048
    55    54
SMALL
GAST_HUCK
****
This file was generated by PARSER (from files_GN.cpp)

@<TRIPOS>ATOM
      1 C1         -4.9738   -0.6080   15.1827 C.2         1 STE       0.0348
      2 O1         -4.2227   -1.7364   15.2645 O.co2       1 STE      -0.5690
      3 O2         -5.2445   -0.0906   13.9670 O.co2       1 STE      -0.5690
      4 C2         -5.3796    0.1091   16.4107 C.3         1 STE       0.0002
      5 C3         -5.3919    1.6643   16.2589 C.3         1 STE      -0.0414
      6 C4         -6.8245    2.2806   16.1740 C.3         1 STE      -0.0516
      7 C5         -6.8914    3.8168   16.4301 C.3         1 STE      -0.0530
      8 C6         -6.2910    4.3031   17.7890 C.3         1 STE      -0.0531
      9 C7         -4.9653    5.1185   17.6959 C.3         1 STE      -0.0531
     10 C8         -3.7875    4.5155   16.8653 C.3         1 STE      -0.0531
     11 C9         -2.8936    3.4535   17.5910 C.3         1 STE      -0.0531
     12 C10        -1.4393    3.9540   17.8704 C.3         1 STE      -0.0531
     13 C11        -0.4701    2.8780   18.4359 C.3         1 STE      -0.0531
     14 C12        -0.8879    2.1970   19.7747 C.3         1 STE      -0.0531
     15 C13        -0.7424    3.0859   21.0570 C.3         1 STE      -0.0531
     16 C14        -2.0543    3.2931   21.8784 C.3         1 STE      -0.0531
     17 C15        -2.9197    4.5210   21.4715 C.3         1 STE      -0.0531
     18 C16        -2.4036    5.8765   22.0324 C.3         1 STE      -0.0533
     19 C17        -3.4877    6.9842   22.1831 C.3         1 STE      -0.0559
     20 C18        -4.5174    7.0354   21.0273 C.3         1 STE      -0.0653
     21 H1         -4.6767   -0.1536   17.2144 H           1 STE       0.0430
     22 H2         -6.3770   -0.2469   16.7192 H           1 STE       0.0430
     23 H3         -4.7950    1.9697   15.3899 H           1 STE       0.0283
     24 H4         -4.9091    2.0713   17.1498 H           1 STE       0.0283
     25 H5         -7.4812    1.7746   16.9014 H           1 STE       0.0266
     26 H6         -7.2368    2.0949   15.1698 H           1 STE       0.0266
     27 H7         -7.9505    4.1026   16.3973 H           1 STE       0.0265
     28 H8         -6.4065    4.3274   15.5852 H           1 STE       0.0265
     29 H9         -6.1469    3.4728   18.4835 H           1 STE       0.0265
     30 H10        -7.0265    4.9625   18.2659 H           1 STE       0.0265
     31 H11        -4.5994    5.2955   18.7118 H           1 STE       0.0265
     32 H12        -5.2077    6.0953   17.2651 H           1 STE       0.0265
     33 H13        -3.1725    5.3659   16.5395 H           1 STE       0.0265
     34 H14        -4.1996    4.0677   15.9515 H           1 STE       0.0265
     35 H15        -2.8457    2.5606   16.9538 H           1 STE       0.0265
     36 H16        -3.3477    3.1671   18.5460 H           1 STE       0.0265
     37 H17        -1.4729    4.8185   18.5531 H           1 STE       0.0265
     38 H18        -1.0077    4.2944   16.9198 H           1 STE       0.0265
     39 H19         0.5155    3.3413   18.5744 H           1 STE       0.0265
     40 H20        -0.3529    2.0957   17.6752 H           1 STE       0.0265
     41 H21        -0.2345    1.3230   19.8956 H           1 STE       0.0265
     42 H22        -1.9035    1.8074   19.6736 H           1 STE       0.0265
     43 H23        -0.3046    4.0524   20.8087 H           1 STE       0.0265
     44 H24        -0.0180    2.5898   21.7195 H           1 STE       0.0265
     45 H25        -1.7870    3.4019   22.9318 H           1 STE       0.0265
     46 H26        -2.6691    2.3879   21.8086 H           1 STE       0.0265
     47 H27        -3.9296    4.3404   21.8494 H           1 STE       0.0265
     48 H28        -2.9821    4.5731   20.3797 H           1 STE       0.0265
     49 H29        -1.6010    6.2602   21.3890 H           1 STE       0.0265
     50 H30        -1.9767    5.7103   23.0306 H           1 STE       0.0265
     51 H31        -2.9769    7.9560   22.2298 H           1 STE       0.0263
     52 H32        -4.0176    6.8418   23.1308 H           1 STE       0.0263
     53 H33        -5.1330    7.9338   21.1371 H           1 STE       0.0230
     54 H34        -5.1648    6.1556   21.0711 H           1 STE       0.0230
     55 H35        -4.0026    7.0717   20.0611 H           1 STE       0.0230
@<TRIPOS>BOND
     1     1     2  ar
     2     1     3  ar
     3     1     4   1
     4     4     5   1
     5     5     6   1
     6     6     7   1
     7     7     8   1
     8     8     9   1
     9     9    10   1
    10    10    11   1
    11    11    12   1
    12    12    13   1
    13    13    14   1
    14    14    15   1
    15    15    16   1
    16    16    17   1
    17    17    18   1
    18    18    19   1
    19    19    20   1
    20     4    21   1
    21     4    22   1
    22     5    23   1
    23     5    24   1
    24     6    25   1
    25     6    26   1
    26     7    27   1
    27     7    28   1
    28     8    29   1
    29     8    30   1
    30     9    31   1
    31     9    32   1
    32    10    33   1
    33    10    34   1
    34    11    35   1
    35    11    36   1
    36    12    37   1
    37    12    38   1
    38    13    39   1
    39    13    40   1
    40    14    41   1
    41    14    42   1
    42    15    43   1
    43    15    44   1
    44    16    45   1
    45    16    46   1
    46    17    47   1
    47    17    48   1
    48    18    49   1
    49    18    50   1
    50    19    51   1
    51    19    52   1
    52    20    53   1
    53    20    54   1
    54    20    55   1
@<TRIPOS>SUBSTRUCTURE
     1  STE      1

