@<TRIPOS>MOLECULE
3uex_ligand_058
    55    54
SMALL
GAST_HUCK
****
This file was generated by PARSER (from files_GN.cpp)

@<TRIPOS>ATOM
      1 C1        -11.8794    2.6660   22.4983 C.2         1 STE       0.0348
      2 O1        -12.2082    1.5617   21.7781 O.co2       1 STE      -0.5690
      3 O2        -12.0803    2.6245   23.8417 O.co2       1 STE      -0.5690
      4 C2        -11.1651    3.7895   21.8574 C.3         1 STE       0.0002
      5 C3        -11.8623    5.1752   22.0153 C.3         1 STE      -0.0414
      6 C4        -11.2358    6.1192   23.0936 C.3         1 STE      -0.0516
      7 C5        -10.7457    7.4949   22.5381 C.3         1 STE      -0.0530
      8 C6         -9.4529    7.5737   21.6479 C.3         1 STE      -0.0531
      9 C7         -8.8314    6.2310   21.1637 C.3         1 STE      -0.0531
     10 C8         -7.6087    6.3587   20.1869 C.3         1 STE      -0.0531
     11 C9         -7.3208    7.7504   19.5288 C.3         1 STE      -0.0531
     12 C10        -5.8841    7.8481   18.9472 C.3         1 STE      -0.0531
     13 C11        -5.5402    6.8126   17.8385 C.3         1 STE      -0.0531
     14 C12        -4.0026    6.6149   17.6310 C.3         1 STE      -0.0531
     15 C13        -3.5049    5.1501   17.8965 C.3         1 STE      -0.0531
     16 C14        -3.6000    4.1916   16.6595 C.3         1 STE      -0.0531
     17 C15        -2.4349    4.3060   15.6275 C.3         1 STE      -0.0531
     18 C16        -1.0079    3.8955   16.1113 C.3         1 STE      -0.0533
     19 C17        -0.6571    2.3732   16.0617 C.3         1 STE      -0.0559
     20 C18        -1.0405    1.5644   17.3256 C.3         1 STE      -0.0653
     21 H1        -11.0867    3.5558   20.7912 H           1 STE       0.0430
     22 H2        -10.1470    3.8113   22.2481 H           1 STE       0.0430
     23 H3        -12.9323    5.0228   22.2305 H           1 STE       0.0283
     24 H4        -11.8089    5.6608   21.0348 H           1 STE       0.0283
     25 H5        -10.4225    5.6317   23.6332 H           1 STE       0.0266
     26 H6        -12.0149    6.3412   23.8311 H           1 STE       0.0266
     27 H7        -10.5856    8.1449   23.4123 H           1 STE       0.0265
     28 H8        -11.5877    7.9444   21.9985 H           1 STE       0.0265
     29 H9         -8.6770    8.1167   22.1911 H           1 STE       0.0265
     30 H10        -9.7048    8.1723   20.7668 H           1 STE       0.0265
     31 H11        -9.6203    5.6335   20.6923 H           1 STE       0.0265
     32 H12        -8.4706    5.6876   22.0501 H           1 STE       0.0265
     33 H13        -7.7639    5.6218   19.3776 H           1 STE       0.0265
     34 H14        -6.7047    6.0382   20.7344 H           1 STE       0.0265
     35 H15        -7.4241    8.5159   20.3080 H           1 STE       0.0265
     36 H16        -8.0653    7.9419   18.7502 H           1 STE       0.0265
     37 H17        -5.1684    7.7681   19.7668 H           1 STE       0.0265
     38 H18        -5.7721    8.8454   18.5229 H           1 STE       0.0265
     39 H19        -5.9797    7.1725   16.9038 H           1 STE       0.0265
     40 H20        -6.0124    5.8489   18.0639 H           1 STE       0.0265
     41 H21        -3.4508    7.2856   18.3009 H           1 STE       0.0265
     42 H22        -3.7361    6.9062   16.6107 H           1 STE       0.0265
     43 H23        -4.1124    4.7165   18.7128 H           1 STE       0.0265
     44 H24        -2.4507    5.1699   18.2350 H           1 STE       0.0265
     45 H25        -4.5461    4.3941   16.1381 H           1 STE       0.0265
     46 H26        -3.6595    3.1633   17.0258 H           1 STE       0.0265
     47 H27        -2.3980    5.3440   15.2835 H           1 STE       0.0265
     48 H28        -2.6975    3.6987   14.7569 H           1 STE       0.0265
     49 H29        -0.8362    4.2902   17.1251 H           1 STE       0.0265
     50 H30        -0.3019    4.4000   15.4368 H           1 STE       0.0265
     51 H31         0.4325    2.2905   15.9530 H           1 STE       0.0263
     52 H32        -1.1221    1.9141   15.1791 H           1 STE       0.0263
     53 H33        -0.6304    0.5471   17.2344 H           1 STE       0.0230
     54 H34        -2.1312    1.4855   17.4260 H           1 STE       0.0230
     55 H35        -0.6206    2.0333   18.2302 H           1 STE       0.0230
@<TRIPOS>BOND
     1     1     2  ar
     2     1     3  ar
     3     1     4   1
     4     4     5   1
     5     5     6   1
     6     6     7   1
     7     7     8   1
     8     8     9   1
     9     9    10   1
    10    10    11   1
    11    11    12   1
    12    12    13   1
    13    13    14   1
    14    14    15   1
    15    15    16   1
    16    16    17   1
    17    17    18   1
    18    18    19   1
    19    19    20   1
    20     4    21   1
    21     4    22   1
    22     5    23   1
    23     5    24   1
    24     6    25   1
    25     6    26   1
    26     7    27   1
    27     7    28   1
    28     8    29   1
    29     8    30   1
    30     9    31   1
    31     9    32   1
    32    10    33   1
    33    10    34   1
    34    11    35   1
    35    11    36   1
    36    12    37   1
    37    12    38   1
    38    13    39   1
    39    13    40   1
    40    14    41   1
    41    14    42   1
    42    15    43   1
    43    15    44   1
    44    16    45   1
    45    16    46   1
    46    17    47   1
    47    17    48   1
    48    18    49   1
    49    18    50   1
    50    19    51   1
    51    19    52   1
    52    20    53   1
    53    20    54   1
    54    20    55   1
@<TRIPOS>SUBSTRUCTURE
     1  STE      1

