@<TRIPOS>MOLECULE
3uex_ligand_047
    55    54
SMALL
GAST_HUCK
****
This file was generated by PARSER (from files_GN.cpp)

@<TRIPOS>ATOM
      1 C1        -11.2482    3.8676   22.2141 C.2         1 STE       0.0348
      2 O1        -11.3033    3.2462   23.4134 O.co2       1 STE      -0.5690
      3 O2        -10.6998    3.2257   21.1518 O.co2       1 STE      -0.5690
      4 C2        -11.9673    5.1457   22.0267 C.3         1 STE       0.0002
      5 C3        -11.3605    6.3283   22.8474 C.3         1 STE      -0.0414
      6 C4        -10.4242    7.2742   22.0430 C.3         1 STE      -0.0516
      7 C5         -9.1538    6.5876   21.4662 C.3         1 STE      -0.0530
      8 C6         -8.1599    7.5900   20.8188 C.3         1 STE      -0.0531
      9 C7         -7.0602    6.9130   19.9533 C.3         1 STE      -0.0531
     10 C8         -5.7876    7.7844   19.7948 C.3         1 STE      -0.0531
     11 C9         -4.8299    7.3040   18.6747 C.3         1 STE      -0.0531
     12 C10        -3.3626    7.8247   18.8186 C.3         1 STE      -0.0531
     13 C11        -2.3391    6.8510   19.4674 C.3         1 STE      -0.0531
     14 C12        -2.4897    6.5745   20.9963 C.3         1 STE      -0.0531
     15 C13        -3.4214    5.3832   21.3644 C.3         1 STE      -0.0531
     16 C14        -2.7027    4.0018   21.4345 C.3         1 STE      -0.0531
     17 C15        -3.6277    2.7540   21.2934 C.3         1 STE      -0.0531
     18 C16        -4.7247    2.5509   22.3853 C.3         1 STE      -0.0533
     19 C17        -6.0717    3.2738   22.0966 C.3         1 STE      -0.0559
     20 C18        -7.0411    3.2491   23.3051 C.3         1 STE      -0.0653
     21 H1        -13.0079    4.9887   22.3213 H           1 STE       0.0430
     22 H2        -11.9774    5.3975   20.9671 H           1 STE       0.0430
     23 H3        -10.8197    5.9580   23.7283 H           1 STE       0.0283
     24 H4        -12.1898    6.9378   23.2204 H           1 STE       0.0283
     25 H5        -10.1190    8.0960   22.7023 H           1 STE       0.0266
     26 H6        -10.9934    7.7150   21.2222 H           1 STE       0.0266
     27 H7         -9.4615    5.8537   20.7195 H           1 STE       0.0265
     28 H8         -8.6471    6.0478   22.2740 H           1 STE       0.0265
     29 H9         -7.6941    8.1711   21.6285 H           1 STE       0.0265
     30 H10        -8.7089    8.2910   20.1827 H           1 STE       0.0265
     31 H11        -7.4793    6.6919   18.9710 H           1 STE       0.0265
     32 H12        -6.7721    5.9587   20.4081 H           1 STE       0.0265
     33 H13        -5.2734    7.8015   20.7595 H           1 STE       0.0265
     34 H14        -6.0836    8.8107   19.5697 H           1 STE       0.0265
     35 H15        -5.2379    7.6696   17.7260 H           1 STE       0.0265
     36 H16        -4.8217    6.2085   18.6109 H           1 STE       0.0265
     37 H17        -3.3505    8.7763   19.3623 H           1 STE       0.0265
     38 H18        -2.9960    8.0462   17.8116 H           1 STE       0.0265
     39 H19        -1.3497    7.2899   19.3204 H           1 STE       0.0265
     40 H20        -2.3419    5.9059   18.9161 H           1 STE       0.0265
     41 H21        -2.8636    7.4782   21.4820 H           1 STE       0.0265
     42 H22        -1.5005    6.3814   21.4209 H           1 STE       0.0265
     43 H23        -4.2372    5.3280   20.6411 H           1 STE       0.0265
     44 H24        -3.8603    5.5778   22.3536 H           1 STE       0.0265
     45 H25        -2.1572    3.9341   22.3854 H           1 STE       0.0265
     46 H26        -1.9608    3.9439   20.6321 H           1 STE       0.0265
     47 H27        -2.9736    1.8744   21.3205 H           1 STE       0.0265
     48 H28        -4.0958    2.7575   20.3041 H           1 STE       0.0265
     49 H29        -4.3229    2.8649   23.3503 H           1 STE       0.0265
     50 H30        -4.9353    1.4771   22.4619 H           1 STE       0.0265
     51 H31        -6.5638    2.7837   21.2436 H           1 STE       0.0263
     52 H32        -5.8966    4.3223   21.8486 H           1 STE       0.0263
     53 H33        -7.9880    3.7226   23.0237 H           1 STE       0.0230
     54 H34        -6.6096    3.8048   24.1465 H           1 STE       0.0230
     55 H35        -7.2440    2.2174   23.6151 H           1 STE       0.0230
@<TRIPOS>BOND
     1     1     2  ar
     2     1     3  ar
     3     1     4   1
     4     4     5   1
     5     5     6   1
     6     6     7   1
     7     7     8   1
     8     8     9   1
     9     9    10   1
    10    10    11   1
    11    11    12   1
    12    12    13   1
    13    13    14   1
    14    14    15   1
    15    15    16   1
    16    16    17   1
    17    17    18   1
    18    18    19   1
    19    19    20   1
    20     4    21   1
    21     4    22   1
    22     5    23   1
    23     5    24   1
    24     6    25   1
    25     6    26   1
    26     7    27   1
    27     7    28   1
    28     8    29   1
    29     8    30   1
    30     9    31   1
    31     9    32   1
    32    10    33   1
    33    10    34   1
    34    11    35   1
    35    11    36   1
    36    12    37   1
    37    12    38   1
    38    13    39   1
    39    13    40   1
    40    14    41   1
    41    14    42   1
    42    15    43   1
    43    15    44   1
    44    16    45   1
    45    16    46   1
    46    17    47   1
    47    17    48   1
    48    18    49   1
    49    18    50   1
    50    19    51   1
    51    19    52   1
    52    20    53   1
    53    20    54   1
    54    20    55   1
@<TRIPOS>SUBSTRUCTURE
     1  STE      1

