@<TRIPOS>MOLECULE
3uex_ligand_004
    55    54
SMALL
GAST_HUCK
****
This file was generated by PARSER (from files_GN.cpp)

@<TRIPOS>ATOM
      1 C1         -7.6982    3.6758   15.2386 C.2         1 STE       0.0348
      2 O1         -7.5178    4.1831   13.9977 O.co2       1 STE      -0.5690
      3 O2         -8.9493    3.7338   15.7381 O.co2       1 STE      -0.5690
      4 C2         -6.7425    2.7114   15.8065 C.3         1 STE       0.0002
      5 C3         -6.4363    2.9045   17.3306 C.3         1 STE      -0.0414
      6 C4         -7.5381    3.6078   18.1686 C.3         1 STE      -0.0516
      7 C5         -7.1853    3.8837   19.6654 C.3         1 STE      -0.0530
      8 C6         -6.1233    4.9828   19.9271 C.3         1 STE      -0.0531
      9 C7         -6.6288    6.4397   19.7362 C.3         1 STE      -0.0531
     10 C8         -5.5106    7.4981   19.5257 C.3         1 STE      -0.0531
     11 C9         -4.5130    7.6696   20.7167 C.3         1 STE      -0.0531
     12 C10        -3.2687    6.7406   20.7459 C.3         1 STE      -0.0531
     13 C11        -2.1929    6.8979   19.6321 C.3         1 STE      -0.0531
     14 C12        -1.6298    8.3306   19.3628 C.3         1 STE      -0.0531
     15 C13        -2.4749    9.1874   18.3710 C.3         1 STE      -0.0531
     16 C14        -1.7912   10.4928   17.8504 C.3         1 STE      -0.0531
     17 C15        -2.1783   11.8159   18.5798 C.3         1 STE      -0.0531
     18 C16        -1.6852   11.9662   20.0456 C.3         1 STE      -0.0533
     19 C17        -0.1586   12.2326   20.1890 C.3         1 STE      -0.0559
     20 C18         0.3890   11.8769   21.5929 C.3         1 STE      -0.0653
     21 H1         -5.7932    2.7688   15.2560 H           1 STE       0.0430
     22 H2         -7.1549    1.7095   15.6444 H           1 STE       0.0430
     23 H3         -5.5113    3.4787   17.4026 H           1 STE       0.0283
     24 H4         -6.2522    1.9110   17.7533 H           1 STE       0.0283
     25 H5         -8.4383    2.9885   18.1404 H           1 STE       0.0266
     26 H6         -7.7832    4.5599   17.6977 H           1 STE       0.0266
     27 H7         -6.8260    2.9507   20.1030 H           1 STE       0.0265
     28 H8         -8.1045    4.1562   20.1948 H           1 STE       0.0265
     29 H9         -5.2559    4.8006   19.2875 H           1 STE       0.0265
     30 H10        -5.7846    4.8875   20.9665 H           1 STE       0.0265
     31 H11        -7.2372    6.7256   20.6005 H           1 STE       0.0265
     32 H12        -7.2830    6.4861   18.8644 H           1 STE       0.0265
     33 H13        -6.0108    8.4624   19.3771 H           1 STE       0.0265
     34 H14        -4.9677    7.2760   18.6033 H           1 STE       0.0265
     35 H15        -5.0595    7.5298   21.6521 H           1 STE       0.0265
     36 H16        -4.1595    8.7018   20.7381 H           1 STE       0.0265
     37 H17        -3.6107    5.7041   20.7357 H           1 STE       0.0265
     38 H18        -2.7768    6.8950   21.7111 H           1 STE       0.0265
     39 H19        -2.5635    6.4579   18.7053 H           1 STE       0.0265
     40 H20        -1.3488    6.2794   19.9509 H           1 STE       0.0265
     41 H21        -0.6298    8.2196   18.9268 H           1 STE       0.0265
     42 H22        -1.5096    8.8474   20.3140 H           1 STE       0.0265
     43 H23        -3.4365    9.4358   18.8199 H           1 STE       0.0265
     44 H24        -2.6885    8.5604   17.4972 H           1 STE       0.0265
     45 H25        -2.0992   10.6254   16.8072 H           1 STE       0.0265
     46 H26        -0.7061   10.3717   17.8379 H           1 STE       0.0265
     47 H27        -3.2684   11.8996   18.5711 H           1 STE       0.0265
     48 H28        -1.7875   12.6586   18.0007 H           1 STE       0.0265
     49 H29        -1.9796   11.0884   20.6145 H           1 STE       0.0265
     50 H30        -2.2185   12.8133   20.4941 H           1 STE       0.0265
     51 H31         0.0294   13.2944   19.9903 H           1 STE       0.0263
     52 H32         0.4018   11.6526   19.4538 H           1 STE       0.0263
     53 H33         1.4068   12.2593   21.6972 H           1 STE       0.0230
     54 H34         0.4084   10.7941   21.7195 H           1 STE       0.0230
     55 H35        -0.2324   12.3178   22.3784 H           1 STE       0.0230
@<TRIPOS>BOND
     1     1     2  ar
     2     1     3  ar
     3     1     4   1
     4     4     5   1
     5     5     6   1
     6     6     7   1
     7     7     8   1
     8     8     9   1
     9     9    10   1
    10    10    11   1
    11    11    12   1
    12    12    13   1
    13    13    14   1
    14    14    15   1
    15    15    16   1
    16    16    17   1
    17    17    18   1
    18    18    19   1
    19    19    20   1
    20     4    21   1
    21     4    22   1
    22     5    23   1
    23     5    24   1
    24     6    25   1
    25     6    26   1
    26     7    27   1
    27     7    28   1
    28     8    29   1
    29     8    30   1
    30     9    31   1
    31     9    32   1
    32    10    33   1
    33    10    34   1
    34    11    35   1
    35    11    36   1
    36    12    37   1
    37    12    38   1
    38    13    39   1
    39    13    40   1
    40    14    41   1
    41    14    42   1
    42    15    43   1
    43    15    44   1
    44    16    45   1
    45    16    46   1
    46    17    47   1
    47    17    48   1
    48    18    49   1
    49    18    50   1
    50    19    51   1
    51    19    52   1
    52    20    53   1
    53    20    54   1
    54    20    55   1
@<TRIPOS>SUBSTRUCTURE
     1  STE      1

