@<TRIPOS>MOLECULE
3uex_ligand_022
    55    54
SMALL
GAST_HUCK
****
This file was generated by PARSER (from files_GN.cpp)

@<TRIPOS>ATOM
      1 C1         -5.3881    1.0332   15.7886 C.2         1 STE       0.0348
      2 O1         -4.4585    0.7132   16.7280 O.co2       1 STE      -0.5690
      3 O2         -5.3420    0.3787   14.6024 O.co2       1 STE      -0.5690
      4 C2         -6.4870    1.9744   16.0815 C.3         1 STE       0.0002
      5 C3         -7.0594    1.8859   17.5339 C.3         1 STE      -0.0414
      6 C4         -6.6157    3.0668   18.4378 C.3         1 STE      -0.0516
      7 C5         -7.5527    4.3076   18.3129 C.3         1 STE      -0.0530
      8 C6         -6.8745    5.6444   18.7209 C.3         1 STE      -0.0531
      9 C7         -5.9948    6.2745   17.5878 C.3         1 STE      -0.0531
     10 C8         -4.6713    6.9219   18.0816 C.3         1 STE      -0.0531
     11 C9         -4.8178    8.1992   18.9665 C.3         1 STE      -0.0531
     12 C10        -3.8672    8.2068   20.1992 C.3         1 STE      -0.0531
     13 C11        -4.4397    7.3641   21.3884 C.3         1 STE      -0.0531
     14 C12        -3.4133    6.9190   22.4684 C.3         1 STE      -0.0531
     15 C13        -2.2859    5.9466   22.0105 C.3         1 STE      -0.0531
     16 C14        -2.7534    4.6526   21.2787 C.3         1 STE      -0.0531
     17 C15        -1.6086    3.9318   20.5078 C.3         1 STE      -0.0531
     18 C16        -1.2430    4.5902   19.1321 C.3         1 STE      -0.0533
     19 C17         0.2754    4.8495   18.9191 C.3         1 STE      -0.0559
     20 C18         0.7880    6.1250   19.6355 C.3         1 STE      -0.0653
     21 H1         -7.3025    1.7881   15.3721 H           1 STE       0.0430
     22 H2         -6.1171    2.9829   15.8649 H           1 STE       0.0430
     23 H3         -6.7507    0.9434   17.9978 H           1 STE       0.0283
     24 H4         -8.1510    1.8636   17.4889 H           1 STE       0.0283
     25 H5         -5.5815    3.3334   18.2001 H           1 STE       0.0266
     26 H6         -6.6326    2.7373   19.4780 H           1 STE       0.0266
     27 H7         -8.4100    4.1466   18.9769 H           1 STE       0.0265
     28 H8         -7.9468    4.4071   17.2912 H           1 STE       0.0265
     29 H9         -6.2700    5.4577   19.6137 H           1 STE       0.0265
     30 H10        -7.6491    6.3734   18.9938 H           1 STE       0.0265
     31 H11        -6.5824    7.0283   17.0429 H           1 STE       0.0265
     32 H12        -5.7140    5.4988   16.8628 H           1 STE       0.0265
     33 H13        -4.0666    7.1756   17.2032 H           1 STE       0.0265
     34 H14        -4.1213    6.1430   18.6169 H           1 STE       0.0265
     35 H15        -5.8517    8.3199   19.3122 H           1 STE       0.0265
     36 H16        -4.5885    9.0750   18.3507 H           1 STE       0.0265
     37 H17        -3.7290    9.2398   20.5445 H           1 STE       0.0265
     38 H18        -2.8828    7.8350   19.8856 H           1 STE       0.0265
     39 H19        -4.9342    6.4638   21.0115 H           1 STE       0.0265
     40 H20        -5.2054    7.9720   21.8901 H           1 STE       0.0265
     41 H21        -3.9764    6.4255   23.2729 H           1 STE       0.0265
     42 H22        -2.9443    7.8132   22.9014 H           1 STE       0.0265
     43 H23        -1.7355    5.6306   22.9077 H           1 STE       0.0265
     44 H24        -1.5775    6.5006   21.3822 H           1 STE       0.0265
     45 H25        -3.5488    4.8734   20.5586 H           1 STE       0.0265
     46 H26        -3.1643    3.9630   22.0262 H           1 STE       0.0265
     47 H27        -1.9326    2.8993   20.3175 H           1 STE       0.0265
     48 H28        -0.7259    3.8660   21.1654 H           1 STE       0.0265
     49 H29        -1.7765    5.5397   18.9969 H           1 STE       0.0265
     50 H30        -1.5936    3.9208   18.3302 H           1 STE       0.0265
     51 H31         0.4600    4.9633   17.8456 H           1 STE       0.0263
     52 H32         0.8424    3.9763   19.2666 H           1 STE       0.0263
     53 H33         1.8476    6.2569   19.4241 H           1 STE       0.0230
     54 H34         0.6505    6.0402   20.7170 H           1 STE       0.0230
     55 H35         0.2469    7.0026   19.2677 H           1 STE       0.0230
@<TRIPOS>BOND
     1     1     2  ar
     2     1     3  ar
     3     1     4   1
     4     4     5   1
     5     5     6   1
     6     6     7   1
     7     7     8   1
     8     8     9   1
     9     9    10   1
    10    10    11   1
    11    11    12   1
    12    12    13   1
    13    13    14   1
    14    14    15   1
    15    15    16   1
    16    16    17   1
    17    17    18   1
    18    18    19   1
    19    19    20   1
    20     4    21   1
    21     4    22   1
    22     5    23   1
    23     5    24   1
    24     6    25   1
    25     6    26   1
    26     7    27   1
    27     7    28   1
    28     8    29   1
    29     8    30   1
    30     9    31   1
    31     9    32   1
    32    10    33   1
    33    10    34   1
    34    11    35   1
    35    11    36   1
    36    12    37   1
    37    12    38   1
    38    13    39   1
    39    13    40   1
    40    14    41   1
    41    14    42   1
    42    15    43   1
    43    15    44   1
    44    16    45   1
    45    16    46   1
    46    17    47   1
    47    17    48   1
    48    18    49   1
    49    18    50   1
    50    19    51   1
    51    19    52   1
    52    20    53   1
    53    20    54   1
    54    20    55   1
@<TRIPOS>SUBSTRUCTURE
     1  STE      1

