@<TRIPOS>MOLECULE
3uex_ligand_021
    55    54
SMALL
GAST_HUCK
****
This file was generated by PARSER (from files_GN.cpp)

@<TRIPOS>ATOM
      1 C1        -11.4154    4.0819   21.8952 C.2         1 STE       0.0348
      2 O1        -11.5364    3.3872   23.0500 O.co2       1 STE      -0.5690
      3 O2        -11.2632    3.4075   20.7314 O.co2       1 STE      -0.5690
      4 C2        -11.6000    5.5450   21.9025 C.3         1 STE       0.0002
      5 C3        -10.4337    6.3236   22.5747 C.3         1 STE      -0.0414
      6 C4         -9.2734    6.7389   21.6307 C.3         1 STE      -0.0516
      7 C5         -8.5247    5.5584   20.9450 C.3         1 STE      -0.0530
      8 C6         -7.3400    5.9200   19.9835 C.3         1 STE      -0.0531
      9 C7         -7.2219    7.4000   19.5071 C.3         1 STE      -0.0531
     10 C8         -6.2881    7.6207   18.2854 C.3         1 STE      -0.0531
     11 C9         -4.7640    7.7251   18.5910 C.3         1 STE      -0.0531
     12 C10        -4.3563    8.9558   19.4655 C.3         1 STE      -0.0531
     13 C11        -2.9338    9.5312   19.1983 C.3         1 STE      -0.0531
     14 C12        -2.7679   10.4160   17.9252 C.3         1 STE      -0.0531
     15 C13        -3.8397   11.5304   17.7222 C.3         1 STE      -0.0531
     16 C14        -3.4566   12.8850   18.3724 C.3         1 STE      -0.0531
     17 C15        -4.4642   14.0264   18.0576 C.3         1 STE      -0.0531
     18 C16        -3.9280   15.4186   18.5040 C.3         1 STE      -0.0533
     19 C17        -3.3656   16.2954   17.3502 C.3         1 STE      -0.0559
     20 C18        -2.5200   15.5332   16.2975 C.3         1 STE      -0.0653
     21 H1        -12.5238    5.7507   22.4459 H           1 STE       0.0430
     22 H2        -11.7397    5.8993   20.8793 H           1 STE       0.0430
     23 H3        -10.0293    5.7561   23.4158 H           1 STE       0.0283
     24 H4        -10.8445    7.2482   22.9862 H           1 STE       0.0283
     25 H5         -8.5472    7.3196   22.2026 H           1 STE       0.0266
     26 H6         -9.6838    7.4001   20.8623 H           1 STE       0.0266
     27 H7         -9.2552    4.9737   20.3762 H           1 STE       0.0265
     28 H8         -8.1347    4.8913   21.7241 H           1 STE       0.0265
     29 H9         -7.4333    5.2698   19.0995 H           1 STE       0.0265
     30 H10        -6.3953    5.6425   20.4739 H           1 STE       0.0265
     31 H11        -6.8809    8.0107   20.3454 H           1 STE       0.0265
     32 H12        -8.2165    7.7521   19.2169 H           1 STE       0.0265
     33 H13        -6.6050    8.5457   17.7841 H           1 STE       0.0265
     34 H14        -6.4482    6.8014   17.5746 H           1 STE       0.0265
     35 H15        -4.2617    7.7671   17.6199 H           1 STE       0.0265
     36 H16        -4.4283    6.8014   19.0750 H           1 STE       0.0265
     37 H17        -4.4111    8.6525   20.5189 H           1 STE       0.0265
     38 H18        -5.0821    9.7680   19.3442 H           1 STE       0.0265
     39 H19        -2.2317    8.6904   19.1314 H           1 STE       0.0265
     40 H20        -2.6430   10.1258   20.0731 H           1 STE       0.0265
     41 H21        -2.7720    9.7651   17.0439 H           1 STE       0.0265
     42 H22        -1.7717   10.8826   17.9607 H           1 STE       0.0265
     43 H23        -4.8128   11.1919   18.1045 H           1 STE       0.0265
     44 H24        -3.9604   11.6912   16.6395 H           1 STE       0.0265
     45 H25        -2.4594   13.1584   18.0067 H           1 STE       0.0265
     46 H26        -3.4036   12.7663   19.4585 H           1 STE       0.0265
     47 H27        -5.3961   13.8224   18.5909 H           1 STE       0.0265
     48 H28        -4.7010   14.0456   16.9941 H           1 STE       0.0265
     49 H29        -3.1530   15.3175   19.2698 H           1 STE       0.0265
     50 H30        -4.7398   15.9863   18.9616 H           1 STE       0.0265
     51 H31        -2.7292   17.0827   17.7832 H           1 STE       0.0263
     52 H32        -4.1957   16.7938   16.8329 H           1 STE       0.0263
     53 H33        -2.0561   16.2475   15.6071 H           1 STE       0.0230
     54 H34        -3.1519   14.8572   15.7171 H           1 STE       0.0230
     55 H35        -1.7299   14.9556   16.7863 H           1 STE       0.0230
@<TRIPOS>BOND
     1     1     2  ar
     2     1     3  ar
     3     1     4   1
     4     4     5   1
     5     5     6   1
     6     6     7   1
     7     7     8   1
     8     8     9   1
     9     9    10   1
    10    10    11   1
    11    11    12   1
    12    12    13   1
    13    13    14   1
    14    14    15   1
    15    15    16   1
    16    16    17   1
    17    17    18   1
    18    18    19   1
    19    19    20   1
    20     4    21   1
    21     4    22   1
    22     5    23   1
    23     5    24   1
    24     6    25   1
    25     6    26   1
    26     7    27   1
    27     7    28   1
    28     8    29   1
    29     8    30   1
    30     9    31   1
    31     9    32   1
    32    10    33   1
    33    10    34   1
    34    11    35   1
    35    11    36   1
    36    12    37   1
    37    12    38   1
    38    13    39   1
    39    13    40   1
    40    14    41   1
    41    14    42   1
    42    15    43   1
    43    15    44   1
    44    16    45   1
    45    16    46   1
    46    17    47   1
    47    17    48   1
    48    18    49   1
    49    18    50   1
    50    19    51   1
    51    19    52   1
    52    20    53   1
    53    20    54   1
    54    20    55   1
@<TRIPOS>SUBSTRUCTURE
     1  STE      1

