@<TRIPOS>MOLECULE
3uex_ligand_056
    55    54
SMALL
GAST_HUCK
****
This file was generated by PARSER (from files_GN.cpp)

@<TRIPOS>ATOM
      1 C1         -4.2086   -0.8480   13.9433 C.2         1 STE       0.0348
      2 O1         -5.2925   -0.0644   14.0905 O.co2       1 STE      -0.5690
      3 O2         -3.9897   -1.8292   14.8521 O.co2       1 STE      -0.5690
      4 C2         -3.3942   -0.7719   12.7134 C.3         1 STE       0.0002
      5 C3         -2.2795    0.3068   12.7885 C.3         1 STE      -0.0414
      6 C4         -2.8085    1.7563   12.9258 C.3         1 STE      -0.0516
      7 C5         -1.7148    2.8581   12.9454 C.3         1 STE      -0.0530
      8 C6         -0.6350    2.7669   14.0588 C.3         1 STE      -0.0531
      9 C7         -1.1154    2.6483   15.5297 C.3         1 STE      -0.0531
     10 C8         -2.1158    3.7491   15.9771 C.3         1 STE      -0.0531
     11 C9         -2.2415    3.8793   17.5236 C.3         1 STE      -0.0531
     12 C10        -3.5992    4.4444   18.0215 C.3         1 STE      -0.0531
     13 C11        -4.0380    5.8251   17.4452 C.3         1 STE      -0.0531
     14 C12        -3.8931    7.0648   18.3667 C.3         1 STE      -0.0531
     15 C13        -4.5980    7.0500   19.7533 C.3         1 STE      -0.0531
     16 C14        -6.0359    6.4666   19.8389 C.3         1 STE      -0.0531
     17 C15        -7.1141    7.0910   18.9157 C.3         1 STE      -0.0531
     18 C16        -7.5636    8.5221   19.2969 C.3         1 STE      -0.0533
     19 C17        -8.5593    9.1702   18.2949 C.3         1 STE      -0.0559
     20 C18        -7.9720    9.4194   16.8886 C.3         1 STE      -0.0653
     21 H1         -4.0522   -0.5693   11.8637 H           1 STE       0.0430
     22 H2         -2.9294   -1.7440   12.5379 H           1 STE       0.0430
     23 H3         -1.6812    0.2347   11.8775 H           1 STE       0.0283
     24 H4         -1.6274    0.0654   13.6288 H           1 STE       0.0283
     25 H5         -3.4054    1.8382   13.8304 H           1 STE       0.0266
     26 H6         -3.4714    1.9582   12.0820 H           1 STE       0.0266
     27 H7         -2.2155    3.8234   13.0264 H           1 STE       0.0265
     28 H8         -1.2053    2.8509   11.9807 H           1 STE       0.0265
     29 H9         -0.0092    3.6609   13.9854 H           1 STE       0.0265
     30 H10         0.0156    1.9158   13.8486 H           1 STE       0.0265
     31 H11        -0.2322    2.6978   16.1714 H           1 STE       0.0265
     32 H12        -1.5759    1.6709   15.6869 H           1 STE       0.0265
     33 H13        -3.0972    3.5218   15.5507 H           1 STE       0.0265
     34 H14        -1.7893    4.7105   15.5723 H           1 STE       0.0265
     35 H15        -1.4297    4.5105   17.8972 H           1 STE       0.0265
     36 H16        -2.1214    2.8899   17.9789 H           1 STE       0.0265
     37 H17        -3.5600    4.4917   19.1094 H           1 STE       0.0265
     38 H18        -4.3643    3.7055   17.7732 H           1 STE       0.0265
     39 H19        -5.0762    5.7425   17.1345 H           1 STE       0.0265
     40 H20        -3.4870    6.0424   16.5313 H           1 STE       0.0265
     41 H21        -4.2673    7.9277   17.8144 H           1 STE       0.0265
     42 H22        -2.8303    7.2399   18.5357 H           1 STE       0.0265
     43 H23        -4.6179    8.0697   20.1337 H           1 STE       0.0265
     44 H24        -3.9784    6.4808   20.4465 H           1 STE       0.0265
     45 H25        -6.3834    6.5555   20.8698 H           1 STE       0.0265
     46 H26        -5.9863    5.3981   19.6238 H           1 STE       0.0265
     47 H27        -7.9902    6.4425   18.9395 H           1 STE       0.0265
     48 H28        -6.7503    7.0900   17.8940 H           1 STE       0.0265
     49 H29        -6.6893    9.1670   19.3791 H           1 STE       0.0265
     50 H30        -8.0365    8.4849   20.2800 H           1 STE       0.0265
     51 H31        -8.8678   10.1355   18.6990 H           1 STE       0.0263
     52 H32        -9.4575    8.5586   18.2118 H           1 STE       0.0263
     53 H33        -8.6478   10.0501   16.3151 H           1 STE       0.0230
     54 H34        -7.8314    8.4902   16.3439 H           1 STE       0.0230
     55 H35        -7.0134    9.9236   16.9660 H           1 STE       0.0230
@<TRIPOS>BOND
     1     1     2  ar
     2     1     3  ar
     3     1     4   1
     4     4     5   1
     5     5     6   1
     6     6     7   1
     7     7     8   1
     8     8     9   1
     9     9    10   1
    10    10    11   1
    11    11    12   1
    12    12    13   1
    13    13    14   1
    14    14    15   1
    15    15    16   1
    16    16    17   1
    17    17    18   1
    18    18    19   1
    19    19    20   1
    20     4    21   1
    21     4    22   1
    22     5    23   1
    23     5    24   1
    24     6    25   1
    25     6    26   1
    26     7    27   1
    27     7    28   1
    28     8    29   1
    29     8    30   1
    30     9    31   1
    31     9    32   1
    32    10    33   1
    33    10    34   1
    34    11    35   1
    35    11    36   1
    36    12    37   1
    37    12    38   1
    38    13    39   1
    39    13    40   1
    40    14    41   1
    41    14    42   1
    42    15    43   1
    43    15    44   1
    44    16    45   1
    45    16    46   1
    46    17    47   1
    47    17    48   1
    48    18    49   1
    49    18    50   1
    50    19    51   1
    51    19    52   1
    52    20    53   1
    53    20    54   1
    54    20    55   1
@<TRIPOS>SUBSTRUCTURE
     1  STE      1

