@<TRIPOS>MOLECULE
3uex_ligand_049
    55    54
SMALL
GAST_HUCK
****
This file was generated by PARSER (from files_GN.cpp)

@<TRIPOS>ATOM
      1 C1         -4.6090   -0.5480   15.3006 C.2         1 STE       0.0348
      2 O1         -5.3360    0.1905   14.4294 O.co2       1 STE      -0.5690
      3 O2         -5.1663   -0.8456   16.4975 O.co2       1 STE      -0.5690
      4 C2         -3.1371   -0.6068   15.1633 C.3         1 STE       0.0002
      5 C3         -2.4187    0.6947   15.6195 C.3         1 STE      -0.0414
      6 C4         -2.4847    1.8451   14.5737 C.3         1 STE      -0.0516
      7 C5         -2.1989    3.2690   15.1305 C.3         1 STE      -0.0530
      8 C6         -0.8486    3.4656   15.8936 C.3         1 STE      -0.0531
      9 C7         -1.0048    3.6184   17.4358 C.3         1 STE      -0.0531
     10 C8          0.3228    3.9919   18.1547 C.3         1 STE      -0.0531
     11 C9          0.1890    4.0076   19.7154 C.3         1 STE      -0.0531
     12 C10         0.8428    5.2508   20.4000 C.3         1 STE      -0.0531
     13 C11        -0.1704    6.2840   20.9870 C.3         1 STE      -0.0531
     14 C12        -0.8783    7.1639   19.9105 C.3         1 STE      -0.0531
     15 C13        -1.7019    8.3524   20.4905 C.3         1 STE      -0.0531
     16 C14        -2.9934    8.0190   21.3077 C.3         1 STE      -0.0531
     17 C15        -4.2066    7.4530   20.5024 C.3         1 STE      -0.0531
     18 C16        -4.3433    5.9060   20.3578 C.3         1 STE      -0.0533
     19 C17        -4.1294    5.1099   21.6809 C.3         1 STE      -0.0559
     20 C18        -5.0068    3.8294   21.7694 C.3         1 STE      -0.0653
     21 H1         -2.8932   -0.8275   14.1215 H           1 STE       0.0430
     22 H2         -2.7712   -1.4411   15.7685 H           1 STE       0.0430
     23 H3         -1.3626    0.4571   15.7870 H           1 STE       0.0283
     24 H4         -2.8428    1.0315   16.5739 H           1 STE       0.0283
     25 H5         -3.4876    1.8658   14.1309 H           1 STE       0.0266
     26 H6         -1.7720    1.6372   13.7648 H           1 STE       0.0266
     27 H7         -3.0349    3.5837   15.7655 H           1 STE       0.0265
     28 H8         -2.1884    3.9481   14.2694 H           1 STE       0.0265
     29 H9         -0.3803    4.3781   15.5119 H           1 STE       0.0265
     30 H10        -0.1669    2.6365   15.6792 H           1 STE       0.0265
     31 H11        -1.3869    2.6843   17.8620 H           1 STE       0.0265
     32 H12        -1.7275    4.4161   17.6502 H           1 STE       0.0265
     33 H13         0.6501    4.9744   17.7920 H           1 STE       0.0265
     34 H14         1.0997    3.2662   17.8785 H           1 STE       0.0265
     35 H15         0.6824    3.1023   20.0960 H           1 STE       0.0265
     36 H16        -0.8657    3.9389   20.0145 H           1 STE       0.0265
     37 H17         1.5139    5.7668   19.6957 H           1 STE       0.0265
     38 H18         1.4544    4.8935   21.2411 H           1 STE       0.0265
     39 H19         0.3908    6.9394   21.6714 H           1 STE       0.0265
     40 H20        -0.9285    5.7339   21.5703 H           1 STE       0.0265
     41 H21        -1.5302    6.5338   19.2962 H           1 STE       0.0265
     42 H22        -0.1049    7.5928   19.2560 H           1 STE       0.0265
     43 H23        -1.9702    9.0123   19.6534 H           1 STE       0.0265
     44 H24        -1.0281    8.9252   21.1439 H           1 STE       0.0265
     45 H25        -3.3352    8.9760   21.7250 H           1 STE       0.0265
     46 H26        -2.7666    7.3608   22.1509 H           1 STE       0.0265
     47 H27        -4.2010    7.8961   19.4960 H           1 STE       0.0265
     48 H28        -5.1226    7.8075   21.0002 H           1 STE       0.0265
     49 H29        -3.6404    5.5468   19.5984 H           1 STE       0.0265
     50 H30        -5.3610    5.7238   19.9800 H           1 STE       0.0265
     51 H31        -4.3671    5.7505   22.5473 H           1 STE       0.0263
     52 H32        -3.0756    4.8150   21.7481 H           1 STE       0.0263
     53 H33        -4.7364    3.2685   22.6732 H           1 STE       0.0230
     54 H34        -4.8400    3.1907   20.8899 H           1 STE       0.0230
     55 H35        -6.0719    4.1053   21.8218 H           1 STE       0.0230
@<TRIPOS>BOND
     1     1     2  ar
     2     1     3  ar
     3     1     4   1
     4     4     5   1
     5     5     6   1
     6     6     7   1
     7     7     8   1
     8     8     9   1
     9     9    10   1
    10    10    11   1
    11    11    12   1
    12    12    13   1
    13    13    14   1
    14    14    15   1
    15    15    16   1
    16    16    17   1
    17    17    18   1
    18    18    19   1
    19    19    20   1
    20     4    21   1
    21     4    22   1
    22     5    23   1
    23     5    24   1
    24     6    25   1
    25     6    26   1
    26     7    27   1
    27     7    28   1
    28     8    29   1
    29     8    30   1
    30     9    31   1
    31     9    32   1
    32    10    33   1
    33    10    34   1
    34    11    35   1
    35    11    36   1
    36    12    37   1
    37    12    38   1
    38    13    39   1
    39    13    40   1
    40    14    41   1
    41    14    42   1
    42    15    43   1
    43    15    44   1
    44    16    45   1
    45    16    46   1
    46    17    47   1
    47    17    48   1
    48    18    49   1
    49    18    50   1
    50    19    51   1
    51    19    52   1
    52    20    53   1
    53    20    54   1
    54    20    55   1
@<TRIPOS>SUBSTRUCTURE
     1  STE      1

