@<TRIPOS>MOLECULE
3uex_ligand_044
    55    54
SMALL
GAST_HUCK
****
This file was generated by PARSER (from files_GN.cpp)

@<TRIPOS>ATOM
      1 C1        -11.4874    4.1131   21.7975 C.2         1 STE       0.0348
      2 O1        -11.7030    3.4471   22.9529 O.co2       1 STE      -0.5690
      3 O2        -11.2139    3.4059   20.6721 O.co2       1 STE      -0.5690
      4 C2        -11.3242    5.5790   21.8100 C.3         1 STE       0.0002
      5 C3         -9.8208    5.9750   21.7851 C.3         1 STE      -0.0414
      6 C4         -9.5795    7.4926   21.5217 C.3         1 STE      -0.0516
      7 C5         -8.1872    7.8896   20.9289 C.3         1 STE      -0.0530
      8 C6         -7.3807    6.7453   20.2494 C.3         1 STE      -0.0531
      9 C7         -5.9388    7.1194   19.7837 C.3         1 STE      -0.0531
     10 C8         -5.1699    5.9290   19.1403 C.3         1 STE      -0.0531
     11 C9         -5.8603    5.3334   17.8737 C.3         1 STE      -0.0531
     12 C10        -4.9140    4.6109   16.8848 C.3         1 STE      -0.0531
     13 C11        -4.3603    3.2438   17.3728 C.3         1 STE      -0.0531
     14 C12        -3.4358    2.5376   16.3390 C.3         1 STE      -0.0531
     15 C13        -2.3368    3.4568   15.7446 C.3         1 STE      -0.0531
     16 C14        -1.3510    2.7050   14.8115 C.3         1 STE      -0.0531
     17 C15        -0.1452    3.5754   14.3475 C.3         1 STE      -0.0531
     18 C16        -0.1441    3.9800   12.8491 C.3         1 STE      -0.0533
     19 C17        -1.2796    4.9580   12.4443 C.3         1 STE      -0.0559
     20 C18        -1.2850    5.2408   10.9240 C.3         1 STE      -0.0653
     21 H1        -11.8073    5.9989   22.7040 H           1 STE       0.0430
     22 H2        -11.8337    5.9792   20.9295 H           1 STE       0.0430
     23 H3         -9.3061    5.4106   20.9961 H           1 STE       0.0283
     24 H4         -9.3766    5.7016   22.7471 H           1 STE       0.0283
     25 H5         -9.7248    8.0408   22.4581 H           1 STE       0.0266
     26 H6        -10.3538    7.8506   20.8353 H           1 STE       0.0266
     27 H7         -7.5690    8.3201   21.7217 H           1 STE       0.0265
     28 H8         -8.3511    8.6783   20.1917 H           1 STE       0.0265
     29 H9         -7.9329    6.4210   19.3670 H           1 STE       0.0265
     30 H10        -7.3285    5.9046   20.9446 H           1 STE       0.0265
     31 H11        -5.3601    7.4780   20.6368 H           1 STE       0.0265
     32 H12        -5.9938    7.9362   19.0536 H           1 STE       0.0265
     33 H13        -5.0523    5.1312   19.8836 H           1 STE       0.0265
     34 H14        -4.1703    6.2762   18.8750 H           1 STE       0.0265
     35 H15        -6.3376    6.1505   17.3239 H           1 STE       0.0265
     36 H16        -6.6446    4.6355   18.1822 H           1 STE       0.0265
     37 H17        -4.0812    5.2907   16.6700 H           1 STE       0.0265
     38 H18        -5.4587    4.4509   15.9481 H           1 STE       0.0265
     39 H19        -5.2079    2.5831   17.5870 H           1 STE       0.0265
     40 H20        -3.8053    3.3800   18.3054 H           1 STE       0.0265
     41 H21        -4.0481    2.1376   15.5273 H           1 STE       0.0265
     42 H22        -2.9575    1.6875   16.8402 H           1 STE       0.0265
     43 H23        -1.7747    3.9087   16.5686 H           1 STE       0.0265
     44 H24        -2.8065    4.2599   15.1729 H           1 STE       0.0265
     45 H25        -1.9031    2.3187   13.9483 H           1 STE       0.0265
     46 H26        -0.9697    1.8432   15.3609 H           1 STE       0.0265
     47 H27         0.7660    3.0004   14.5177 H           1 STE       0.0265
     48 H28        -0.0574    4.4790   14.9560 H           1 STE       0.0265
     49 H29        -0.2162    3.0778   12.2350 H           1 STE       0.0265
     50 H30         0.8148    4.4524   12.6287 H           1 STE       0.0265
     51 H31        -1.1564    5.9061   12.9759 H           1 STE       0.0263
     52 H32        -2.2502    4.5357   12.7156 H           1 STE       0.0263
     53 H33        -2.0919    5.9404   10.6784 H           1 STE       0.0230
     54 H34        -1.4437    4.3131   10.3656 H           1 STE       0.0230
     55 H35        -0.3330    5.6836   10.6123 H           1 STE       0.0230
@<TRIPOS>BOND
     1     1     2  ar
     2     1     3  ar
     3     1     4   1
     4     4     5   1
     5     5     6   1
     6     6     7   1
     7     7     8   1
     8     8     9   1
     9     9    10   1
    10    10    11   1
    11    11    12   1
    12    12    13   1
    13    13    14   1
    14    14    15   1
    15    15    16   1
    16    16    17   1
    17    17    18   1
    18    18    19   1
    19    19    20   1
    20     4    21   1
    21     4    22   1
    22     5    23   1
    23     5    24   1
    24     6    25   1
    25     6    26   1
    26     7    27   1
    27     7    28   1
    28     8    29   1
    29     8    30   1
    30     9    31   1
    31     9    32   1
    32    10    33   1
    33    10    34   1
    34    11    35   1
    35    11    36   1
    36    12    37   1
    37    12    38   1
    38    13    39   1
    39    13    40   1
    40    14    41   1
    41    14    42   1
    42    15    43   1
    43    15    44   1
    44    16    45   1
    45    16    46   1
    46    17    47   1
    47    17    48   1
    48    18    49   1
    49    18    50   1
    50    19    51   1
    51    19    52   1
    52    20    53   1
    53    20    54   1
    54    20    55   1
@<TRIPOS>SUBSTRUCTURE
     1  STE      1

