@<TRIPOS>MOLECULE
3uex_ligand_010
    55    54
SMALL
GAST_HUCK
****
This file was generated by PARSER (from files_GN.cpp)

@<TRIPOS>ATOM
      1 C1        -11.9964    2.8127   21.1293 C.2         1 STE       0.0348
      2 O1        -11.6807    2.7882   19.8083 O.co2       1 STE      -0.5690
      3 O2        -12.9416    1.9482   21.5930 O.co2       1 STE      -0.5690
      4 C2        -11.2685    3.7069   22.0542 C.3         1 STE       0.0002
      5 C3        -11.7968    5.1648   21.9738 C.3         1 STE      -0.0414
      6 C4        -11.0789    6.1504   22.9542 C.3         1 STE      -0.0516
      7 C5        -10.6346    7.4876   22.2861 C.3         1 STE      -0.0530
      8 C6         -9.2441    7.4899   21.5682 C.3         1 STE      -0.0531
      9 C7         -8.6947    6.0952   21.1152 C.3         1 STE      -0.0531
     10 C8         -7.5335    6.0474   20.0728 C.3         1 STE      -0.0531
     11 C9         -7.2301    7.3814   19.3403 C.3         1 STE      -0.0531
     12 C10        -6.2761    7.2865   18.1284 C.3         1 STE      -0.0531
     13 C11        -4.8173    6.7729   18.3902 C.3         1 STE      -0.0531
     14 C12        -3.9241    7.7366   19.2639 C.3         1 STE      -0.0531
     15 C13        -3.9147    7.4611   20.8004 C.3         1 STE      -0.0531
     16 C14        -2.5543    6.9590   21.3557 C.3         1 STE      -0.0531
     17 C15        -2.0409    5.6399   20.6903 C.3         1 STE      -0.0531
     18 C16        -0.8193    4.9939   21.4034 C.3         1 STE      -0.0533
     19 C17         0.5710    5.6151   21.0909 C.3         1 STE      -0.0559
     20 C18         0.7763    6.1079   19.6355 C.3         1 STE      -0.0653
     21 H1        -10.2057    3.6754   21.7956 H           1 STE       0.0430
     22 H2        -11.3799    3.3321   23.0784 H           1 STE       0.0430
     23 H3        -12.8685    5.1664   22.1935 H           1 STE       0.0283
     24 H4        -11.6852    5.5028   20.9365 H           1 STE       0.0283
     25 H5        -10.2084    5.6780   23.4206 H           1 STE       0.0266
     26 H6        -11.7722    6.3873   23.7729 H           1 STE       0.0266
     27 H7        -10.5921    8.2607   23.0593 H           1 STE       0.0265
     28 H8        -11.4046    7.8075   21.5765 H           1 STE       0.0265
     29 H9         -8.5012    7.9612   22.2187 H           1 STE       0.0265
     30 H10        -9.3617    8.1336   20.6917 H           1 STE       0.0265
     31 H11        -9.5234    5.5255   20.6884 H           1 STE       0.0265
     32 H12        -8.3495    5.5606   22.0056 H           1 STE       0.0265
     33 H13        -7.7891    5.2722   19.3340 H           1 STE       0.0265
     34 H14        -6.6371    5.7161   20.6046 H           1 STE       0.0265
     35 H15        -6.8031    8.0965   20.0488 H           1 STE       0.0265
     36 H16        -8.1828    7.7862   18.9682 H           1 STE       0.0265
     37 H17        -6.2375    8.2896   17.6738 H           1 STE       0.0265
     38 H18        -6.7380    6.6231   17.3799 H           1 STE       0.0265
     39 H19        -4.3468    6.6930   17.3990 H           1 STE       0.0265
     40 H20        -4.8499    5.7604   18.8216 H           1 STE       0.0265
     41 H21        -4.2104    8.7903   19.0805 H           1 STE       0.0265
     42 H22        -2.8999    7.6541   18.8710 H           1 STE       0.0265
     43 H23        -4.7033    6.7490   21.0847 H           1 STE       0.0265
     44 H24        -4.1501    8.4060   21.3204 H           1 STE       0.0265
     45 H25        -2.6786    6.7780   22.4307 H           1 STE       0.0265
     46 H26        -1.8103    7.7534   21.2286 H           1 STE       0.0265
     47 H27        -1.7731    5.8354   19.6454 H           1 STE       0.0265
     48 H28        -2.8600    4.9097   20.6815 H           1 STE       0.0265
     49 H29        -0.7939    3.9402   21.1215 H           1 STE       0.0265
     50 H30        -0.9774    5.0394   22.4847 H           1 STE       0.0265
     51 H31         1.3384    4.8509   21.2942 H           1 STE       0.0263
     52 H32         0.7622    6.4494   21.7723 H           1 STE       0.0263
     53 H33         1.8268    6.3765   19.4727 H           1 STE       0.0230
     54 H34         0.1725    6.9998   19.4511 H           1 STE       0.0230
     55 H35         0.5055    5.3274   18.9194 H           1 STE       0.0230
@<TRIPOS>BOND
     1     1     2  ar
     2     1     3  ar
     3     1     4   1
     4     4     5   1
     5     5     6   1
     6     6     7   1
     7     7     8   1
     8     8     9   1
     9     9    10   1
    10    10    11   1
    11    11    12   1
    12    12    13   1
    13    13    14   1
    14    14    15   1
    15    15    16   1
    16    16    17   1
    17    17    18   1
    18    18    19   1
    19    19    20   1
    20     4    21   1
    21     4    22   1
    22     5    23   1
    23     5    24   1
    24     6    25   1
    25     6    26   1
    26     7    27   1
    27     7    28   1
    28     8    29   1
    29     8    30   1
    30     9    31   1
    31     9    32   1
    32    10    33   1
    33    10    34   1
    34    11    35   1
    35    11    36   1
    36    12    37   1
    37    12    38   1
    38    13    39   1
    39    13    40   1
    40    14    41   1
    41    14    42   1
    42    15    43   1
    43    15    44   1
    44    16    45   1
    45    16    46   1
    46    17    47   1
    47    17    48   1
    48    18    49   1
    49    18    50   1
    50    19    51   1
    51    19    52   1
    52    20    53   1
    53    20    54   1
    54    20    55   1
@<TRIPOS>SUBSTRUCTURE
     1  STE      1

