@<TRIPOS>MOLECULE
3uex_ligand_019
    55    54
SMALL
GAST_HUCK
****
This file was generated by PARSER (from files_GN.cpp)

@<TRIPOS>ATOM
      1 C1        -10.7192    2.3472   23.8542 C.2         1 STE       0.0348
      2 O1        -10.9771    2.7003   25.1350 O.co2       1 STE      -0.5690
      3 O2        -10.0258    1.2060   23.6017 O.co2       1 STE      -0.5690
      4 C2        -11.2946    3.1501   22.7533 C.3         1 STE       0.0002
      5 C3        -10.6558    4.5740   22.7046 C.3         1 STE      -0.0414
      6 C4        -11.5994    5.6546   22.0803 C.3         1 STE      -0.0516
      7 C5        -11.2393    7.1277   22.4540 C.3         1 STE      -0.0530
      8 C6        -10.0936    7.8003   21.6519 C.3         1 STE      -0.0531
      9 C7         -8.8770    6.8787   21.3519 C.3         1 STE      -0.0531
     10 C8         -7.6619    7.5938   20.6938 C.3         1 STE      -0.0531
     11 C9         -7.8243    7.8690   19.1660 C.3         1 STE      -0.0531
     12 C10        -6.7057    8.7744   18.5779 C.3         1 STE      -0.0531
     13 C11        -5.2753    8.1583   18.6042 C.3         1 STE      -0.0531
     14 C12        -4.1803    9.2558   18.7157 C.3         1 STE      -0.0531
     15 C13        -2.8517    8.8545   18.0154 C.3         1 STE      -0.0531
     16 C14        -1.8809   10.0553   17.7815 C.3         1 STE      -0.0531
     17 C15        -0.7508   10.2374   18.8397 C.3         1 STE      -0.0531
     18 C16        -1.1514   10.7587   20.2533 C.3         1 STE      -0.0533
     19 C17        -1.8754   12.1410   20.3519 C.3         1 STE      -0.0559
     20 C18        -1.3397   13.2511   19.4099 C.3         1 STE      -0.0653
     21 H1        -12.3808    3.2263   22.9222 H           1 STE       0.0430
     22 H2        -11.1261    2.6468   21.7902 H           1 STE       0.0430
     23 H3         -9.7326    4.5052   22.1194 H           1 STE       0.0283
     24 H4        -10.3869    4.8840   23.7255 H           1 STE       0.0283
     25 H5        -12.6114    5.4708   22.4526 H           1 STE       0.0266
     26 H6        -11.6226    5.5397   20.9909 H           1 STE       0.0266
     27 H7        -11.0133    7.1900   23.5231 H           1 STE       0.0265
     28 H8        -12.1260    7.7480   22.2909 H           1 STE       0.0265
     29 H9         -9.7368    8.6548   22.2388 H           1 STE       0.0265
     30 H10       -10.4923    8.1905   20.7088 H           1 STE       0.0265
     31 H11        -9.1838    6.0567   20.6945 H           1 STE       0.0265
     32 H12        -8.5393    6.4469   22.2992 H           1 STE       0.0265
     33 H13        -6.7770    6.9560   20.8269 H           1 STE       0.0265
     34 H14        -7.4776    8.5343   21.2258 H           1 STE       0.0265
     35 H15        -8.7792    8.3757   18.9903 H           1 STE       0.0265
     36 H16        -7.8426    6.9112   18.6267 H           1 STE       0.0265
     37 H17        -6.7170    9.7321   19.1137 H           1 STE       0.0265
     38 H18        -6.9632    8.9879   17.5321 H           1 STE       0.0265
     39 H19        -5.1463    7.5779   17.6795 H           1 STE       0.0265
     40 H20        -5.1669    7.4715   19.4507 H           1 STE       0.0265
     41 H21        -3.9870    9.4437   19.7749 H           1 STE       0.0265
     42 H22        -4.5520   10.1814   18.2602 H           1 STE       0.0265
     43 H23        -3.1089    8.4386   17.0305 H           1 STE       0.0265
     44 H24        -2.3565    8.0538   18.5847 H           1 STE       0.0265
     45 H25        -2.4291   10.9968   17.6790 H           1 STE       0.0265
     46 H26        -1.3692    9.8829   16.8258 H           1 STE       0.0265
     47 H27        -0.0085   10.9305   18.4268 H           1 STE       0.0265
     48 H28        -0.2501    9.2671   18.9707 H           1 STE       0.0265
     49 H29        -0.2239   10.8237   20.8464 H           1 STE       0.0265
     50 H30        -1.7862   10.0025   20.7352 H           1 STE       0.0265
     51 H31        -1.7600   12.4906   21.3881 H           1 STE       0.0263
     52 H32        -2.9526   12.0013   20.1717 H           1 STE       0.0263
     53 H33        -1.7372   14.2269   19.7328 H           1 STE       0.0230
     54 H34        -1.6799   13.0504   18.3813 H           1 STE       0.0230
     55 H35        -0.2371   13.2852   19.4395 H           1 STE       0.0230
@<TRIPOS>BOND
     1     1     2  ar
     2     1     3  ar
     3     1     4   1
     4     4     5   1
     5     5     6   1
     6     6     7   1
     7     7     8   1
     8     8     9   1
     9     9    10   1
    10    10    11   1
    11    11    12   1
    12    12    13   1
    13    13    14   1
    14    14    15   1
    15    15    16   1
    16    16    17   1
    17    17    18   1
    18    18    19   1
    19    19    20   1
    20     4    21   1
    21     4    22   1
    22     5    23   1
    23     5    24   1
    24     6    25   1
    25     6    26   1
    26     7    27   1
    27     7    28   1
    28     8    29   1
    29     8    30   1
    30     9    31   1
    31     9    32   1
    32    10    33   1
    33    10    34   1
    34    11    35   1
    35    11    36   1
    36    12    37   1
    37    12    38   1
    38    13    39   1
    39    13    40   1
    40    14    41   1
    41    14    42   1
    42    15    43   1
    43    15    44   1
    44    16    45   1
    45    16    46   1
    46    17    47   1
    47    17    48   1
    48    18    49   1
    49    18    50   1
    50    19    51   1
    51    19    52   1
    52    20    53   1
    53    20    54   1
    54    20    55   1
@<TRIPOS>SUBSTRUCTURE
     1  STE      1

