@<TRIPOS>MOLECULE
3uex_ligand_066
    55    54
SMALL
GAST_HUCK
****
This file was generated by PARSER (from files_GN.cpp)

@<TRIPOS>ATOM
      1 C1         -5.4642    0.5904   16.2377 C.2         1 STE       0.0348
      2 O1         -4.5799    0.0259   17.0891 O.co2       1 STE      -0.5690
      3 O2         -5.2219    0.4857   14.9124 O.co2       1 STE      -0.5690
      4 C2         -6.6807    1.2393   16.7532 C.3         1 STE       0.0002
      5 C3         -7.3073    0.4521   17.9390 C.3         1 STE      -0.0414
      6 C4         -8.6460    1.0337   18.4790 C.3         1 STE      -0.0516
      7 C5         -9.8894    0.0934   18.3592 C.3         1 STE      -0.0530
      8 C6        -10.6776   -0.0661   19.6954 C.3         1 STE      -0.0531
      9 C7        -11.4195    1.2181   20.1780 C.3         1 STE      -0.0531
     10 C8        -11.9015    1.1305   21.6558 C.3         1 STE      -0.0531
     11 C9        -12.3859    2.4592   22.3215 C.3         1 STE      -0.0531
     12 C10       -11.6618    3.7828   21.9256 C.3         1 STE      -0.0531
     13 C11       -10.1117    3.7834   22.0835 C.3         1 STE      -0.0531
     14 C12        -9.6043    4.2598   23.4840 C.3         1 STE      -0.0531
     15 C13        -8.8085    3.1829   24.2820 C.3         1 STE      -0.0531
     16 C14        -9.7142    2.0160   24.7917 C.3         1 STE      -0.0531
     17 C15        -9.0680    1.1043   25.8768 C.3         1 STE      -0.0531
     18 C16        -7.8936    0.2069   25.3913 C.3         1 STE      -0.0533
     19 C17        -8.3421   -1.1090   24.6940 C.3         1 STE      -0.0559
     20 C18        -7.1434   -1.9191   24.1482 C.3         1 STE      -0.0653
     21 H1         -7.4128    1.3421   15.9483 H           1 STE       0.0430
     22 H2         -6.4049    2.2452   17.0833 H           1 STE       0.0430
     23 H3         -6.5853    0.4621   18.7584 H           1 STE       0.0283
     24 H4         -7.4417   -0.5907   17.6478 H           1 STE       0.0283
     25 H5         -8.8627    1.9878   17.9832 H           1 STE       0.0266
     26 H6         -8.4967    1.2529   19.5400 H           1 STE       0.0266
     27 H7         -9.5569   -0.9067   18.0612 H           1 STE       0.0265
     28 H8        -10.5622    0.4598   17.5776 H           1 STE       0.0265
     29 H9         -9.9677   -0.3987   20.4611 H           1 STE       0.0265
     30 H10       -11.4132   -0.8680   19.5795 H           1 STE       0.0265
     31 H11       -12.2778    1.4166   19.5283 H           1 STE       0.0265
     32 H12       -10.7333    2.0571   20.0873 H           1 STE       0.0265
     33 H13       -11.0875    0.7261   22.2588 H           1 STE       0.0265
     34 H14       -12.7217    0.4071   21.7104 H           1 STE       0.0265
     35 H15       -12.3232    2.3414   23.4093 H           1 STE       0.0265
     36 H16       -13.4452    2.5851   22.0802 H           1 STE       0.0265
     37 H17       -12.0877    4.6098   22.5162 H           1 STE       0.0265
     38 H18       -11.9032    3.9907   20.8799 H           1 STE       0.0265
     39 H19        -9.7043    4.4638   21.3276 H           1 STE       0.0265
     40 H20        -9.7210    2.7885   21.8524 H           1 STE       0.0265
     41 H21       -10.4402    4.6133   24.1048 H           1 STE       0.0265
     42 H22        -8.9390    5.1176   23.3241 H           1 STE       0.0265
     43 H23        -8.3593    3.6718   25.1537 H           1 STE       0.0265
     44 H24        -7.9934    2.7917   23.6604 H           1 STE       0.0265
     45 H25       -10.0266    1.3953   23.9502 H           1 STE       0.0265
     46 H26       -10.6132    2.4653   25.2342 H           1 STE       0.0265
     47 H27        -9.8488    0.4550   26.2962 H           1 STE       0.0265
     48 H28        -8.7090    1.7427   26.6929 H           1 STE       0.0265
     49 H29        -7.2881   -0.0528   26.2659 H           1 STE       0.0265
     50 H30        -7.2585    0.7783   24.7099 H           1 STE       0.0265
     51 H31        -9.0139   -0.8877   23.8585 H           1 STE       0.0263
     52 H32        -8.8798   -1.7312   25.4195 H           1 STE       0.0263
     53 H33        -7.4966   -2.8639   23.7261 H           1 STE       0.0230
     54 H34        -6.4296   -2.1434   24.9486 H           1 STE       0.0230
     55 H35        -6.6347   -1.3543   23.3595 H           1 STE       0.0230
@<TRIPOS>BOND
     1     1     2  ar
     2     1     3  ar
     3     1     4   1
     4     4     5   1
     5     5     6   1
     6     6     7   1
     7     7     8   1
     8     8     9   1
     9     9    10   1
    10    10    11   1
    11    11    12   1
    12    12    13   1
    13    13    14   1
    14    14    15   1
    15    15    16   1
    16    16    17   1
    17    17    18   1
    18    18    19   1
    19    19    20   1
    20     4    21   1
    21     4    22   1
    22     5    23   1
    23     5    24   1
    24     6    25   1
    25     6    26   1
    26     7    27   1
    27     7    28   1
    28     8    29   1
    29     8    30   1
    30     9    31   1
    31     9    32   1
    32    10    33   1
    33    10    34   1
    34    11    35   1
    35    11    36   1
    36    12    37   1
    37    12    38   1
    38    13    39   1
    39    13    40   1
    40    14    41   1
    41    14    42   1
    42    15    43   1
    43    15    44   1
    44    16    45   1
    45    16    46   1
    46    17    47   1
    47    17    48   1
    48    18    49   1
    49    18    50   1
    50    19    51   1
    51    19    52   1
    52    20    53   1
    53    20    54   1
    54    20    55   1
@<TRIPOS>SUBSTRUCTURE
     1  STE      1

