@<TRIPOS>MOLECULE
3uex_ligand_046
    55    54
SMALL
GAST_HUCK
****
This file was generated by PARSER (from files_GN.cpp)

@<TRIPOS>ATOM
      1 C1         -4.5157   -0.4540   15.3387 C.2         1 STE       0.0348
      2 O1         -5.3036    0.2543   14.4955 O.co2       1 STE      -0.5690
      3 O2         -4.9966   -0.7664   16.5691 O.co2       1 STE      -0.5690
      4 C2         -3.0644   -0.5627   15.0676 C.3         1 STE       0.0002
      5 C3         -2.2692    0.6970   15.5272 C.3         1 STE      -0.0414
      6 C4         -2.4683    1.9571   14.6216 C.3         1 STE      -0.0516
      7 C5         -2.3167    3.3080   15.3848 C.3         1 STE      -0.0530
      8 C6         -0.9801    3.4584   16.1865 C.3         1 STE      -0.0531
      9 C7         -1.2030    3.6818   17.7207 C.3         1 STE      -0.0531
     10 C8          0.1066    3.6639   18.5743 C.3         1 STE      -0.0531
     11 C9          0.2188    2.4785   19.5859 C.3         1 STE      -0.0531
     12 C10         0.0529    2.8341   21.0939 C.3         1 STE      -0.0531
     13 C11        -1.3998    3.0165   21.6313 C.3         1 STE      -0.0531
     14 C12        -2.1534    4.3150   21.2396 C.3         1 STE      -0.0531
     15 C13        -1.6219    5.6422   21.8676 C.3         1 STE      -0.0531
     16 C14        -2.0297    6.9089   21.0405 C.3         1 STE      -0.0531
     17 C15        -0.8011    7.6316   20.3966 C.3         1 STE      -0.0531
     18 C16        -1.1609    8.7087   19.3286 C.3         1 STE      -0.0533
     19 C17        -1.4625   10.1206   19.9130 C.3         1 STE      -0.0559
     20 C18        -1.6104   11.1904   18.7986 C.3         1 STE      -0.0653
     21 H1         -2.8958   -0.7371   13.9937 H           1 STE       0.0430
     22 H2         -2.6845   -1.4324   15.6140 H           1 STE       0.0430
     23 H3         -1.2044    0.4469   15.5162 H           1 STE       0.0283
     24 H4         -2.5403    0.9230   16.5662 H           1 STE       0.0283
     25 H5         -3.4718    1.9562   14.1837 H           1 STE       0.0266
     26 H6         -1.7490    1.9367   13.7927 H           1 STE       0.0266
     27 H7         -3.1822    3.4060   16.0526 H           1 STE       0.0265
     28 H8         -2.3742    4.1303   14.6607 H           1 STE       0.0265
     29 H9         -0.4134    4.3169   15.7960 H           1 STE       0.0265
     30 H10        -0.3470    2.5667   16.0729 H           1 STE       0.0265
     31 H11        -1.8859    2.9011   18.0857 H           1 STE       0.0265
     32 H12        -1.7135    4.6471   17.8533 H           1 STE       0.0265
     33 H13         0.1842    4.6086   19.1170 H           1 STE       0.0265
     34 H14         0.9718    3.6429   17.9025 H           1 STE       0.0265
     35 H15         1.2132    2.0418   19.4653 H           1 STE       0.0265
     36 H16        -0.4836    1.6806   19.3252 H           1 STE       0.0265
     37 H17         0.6519    3.7136   21.3285 H           1 STE       0.0265
     38 H18         0.4835    2.0081   21.6587 H           1 STE       0.0265
     39 H19        -1.3713    2.9687   22.7274 H           1 STE       0.0265
     40 H20        -1.9924    2.1605   21.2946 H           1 STE       0.0265
     41 H21        -3.1988    4.1995   21.5555 H           1 STE       0.0265
     42 H22        -2.1615    4.4074   20.1548 H           1 STE       0.0265
     43 H23        -0.5300    5.5932   21.9799 H           1 STE       0.0265
     44 H24        -2.0448    5.7253   22.8806 H           1 STE       0.0265
     45 H25        -2.5402    7.6149   21.7129 H           1 STE       0.0265
     46 H26        -2.7443    6.6221   20.2517 H           1 STE       0.0265
     47 H27        -0.1789    6.8710   19.8979 H           1 STE       0.0265
     48 H28        -0.2043    8.0889   21.2052 H           1 STE       0.0265
     49 H29        -2.0221    8.3499   18.7418 H           1 STE       0.0265
     50 H30        -0.2926    8.7856   18.6592 H           1 STE       0.0265
     51 H31        -0.6304   10.4141   20.5728 H           1 STE       0.0263
     52 H32        -2.3934   10.0839   20.5008 H           1 STE       0.0263
     53 H33        -1.7927   12.1651   19.2616 H           1 STE       0.0230
     54 H34        -2.4541   10.9436   18.1404 H           1 STE       0.0230
     55 H35        -0.6894   11.2511   18.2005 H           1 STE       0.0230
@<TRIPOS>BOND
     1     1     2  ar
     2     1     3  ar
     3     1     4   1
     4     4     5   1
     5     5     6   1
     6     6     7   1
     7     7     8   1
     8     8     9   1
     9     9    10   1
    10    10    11   1
    11    11    12   1
    12    12    13   1
    13    13    14   1
    14    14    15   1
    15    15    16   1
    16    16    17   1
    17    17    18   1
    18    18    19   1
    19    19    20   1
    20     4    21   1
    21     4    22   1
    22     5    23   1
    23     5    24   1
    24     6    25   1
    25     6    26   1
    26     7    27   1
    27     7    28   1
    28     8    29   1
    29     8    30   1
    30     9    31   1
    31     9    32   1
    32    10    33   1
    33    10    34   1
    34    11    35   1
    35    11    36   1
    36    12    37   1
    37    12    38   1
    38    13    39   1
    39    13    40   1
    40    14    41   1
    41    14    42   1
    42    15    43   1
    43    15    44   1
    44    16    45   1
    45    16    46   1
    46    17    47   1
    47    17    48   1
    48    18    49   1
    49    18    50   1
    50    19    51   1
    51    19    52   1
    52    20    53   1
    53    20    54   1
    54    20    55   1
@<TRIPOS>SUBSTRUCTURE
     1  STE      1

