@<TRIPOS>MOLECULE
3uex_ligand_026
    55    54
SMALL
GAST_HUCK
****
This file was generated by PARSER (from files_GN.cpp)

@<TRIPOS>ATOM
      1 C1        -10.7158    2.7049   22.7255 C.2         1 STE       0.0348
      2 O1        -10.4878    1.4923   22.1717 O.co2       1 STE      -0.5690
      3 O2        -11.2981    2.7750   23.9449 O.co2       1 STE      -0.5690
      4 C2        -10.3102    3.9432   22.0255 C.3         1 STE       0.0002
      5 C3        -11.4867    4.9551   21.8312 C.3         1 STE      -0.0414
      6 C4        -11.3950    6.2724   22.6677 C.3         1 STE      -0.0516
      7 C5        -10.6996    7.4704   21.9521 C.3         1 STE      -0.0530
      8 C6         -9.1336    7.4742   21.9598 C.3         1 STE      -0.0531
      9 C7         -8.4624    7.9395   20.6193 C.3         1 STE      -0.0531
     10 C8         -7.6994    6.8248   19.8293 C.3         1 STE      -0.0531
     11 C9         -6.1775    6.6729   20.1758 C.3         1 STE      -0.0531
     12 C10        -5.2023    6.8433   18.9764 C.3         1 STE      -0.0531
     13 C11        -5.6370    6.2637   17.5977 C.3         1 STE      -0.0531
     14 C12        -6.3362    4.8724   17.6489 C.3         1 STE      -0.0531
     15 C13        -6.4506    4.2202   16.2379 C.3         1 STE      -0.0531
     16 C14        -7.0107    2.7602   16.2468 C.3         1 STE      -0.0531
     17 C15        -6.0680    1.6655   16.8299 C.3         1 STE      -0.0531
     18 C16        -4.7583    1.4315   16.0113 C.3         1 STE      -0.0533
     19 C17        -4.6438    0.0105   15.3964 C.3         1 STE      -0.0559
     20 C18        -3.6906   -0.0285   14.1792 C.3         1 STE      -0.0653
     21 H1         -9.9031    3.6782   21.0421 H           1 STE       0.0430
     22 H2         -9.4957    4.3897   22.6030 H           1 STE       0.0430
     23 H3        -12.4390    4.4692   22.0804 H           1 STE       0.0283
     24 H4        -11.5567    5.2085   20.7661 H           1 STE       0.0283
     25 H5        -10.9199    6.0820   23.6372 H           1 STE       0.0266
     26 H6        -12.4216    6.5869   22.8771 H           1 STE       0.0266
     27 H7        -11.0308    8.3853   22.4563 H           1 STE       0.0265
     28 H8        -11.0822    7.5233   20.9269 H           1 STE       0.0265
     29 H9         -8.7555    6.4816   22.2316 H           1 STE       0.0265
     30 H10        -8.8091    8.1708   22.7472 H           1 STE       0.0265
     31 H11        -7.7528    8.7493   20.8360 H           1 STE       0.0265
     32 H12        -9.2348    8.3702   19.9636 H           1 STE       0.0265
     33 H13        -7.8096    7.0512   18.7605 H           1 STE       0.0265
     34 H14        -8.2010    5.8633   20.0071 H           1 STE       0.0265
     35 H15        -6.0137    5.6849   20.6209 H           1 STE       0.0265
     36 H16        -5.8876    7.4093   20.9342 H           1 STE       0.0265
     37 H17        -4.2515    6.3840   19.2594 H           1 STE       0.0265
     38 H18        -5.0176    7.9128   18.8391 H           1 STE       0.0265
     39 H19        -4.7283    6.1754   16.9801 H           1 STE       0.0265
     40 H20        -6.3078    6.9779   17.1069 H           1 STE       0.0265
     41 H21        -7.3548    4.9964   18.0408 H           1 STE       0.0265
     42 H22        -5.7613    4.2172   18.3194 H           1 STE       0.0265
     43 H23        -5.4658    4.2329   15.7562 H           1 STE       0.0265
     44 H24        -7.1335    4.8299   15.6266 H           1 STE       0.0265
     45 H25        -7.2587    2.4781   15.2132 H           1 STE       0.0265
     46 H26        -7.9459    2.7496   16.8181 H           1 STE       0.0265
     47 H27        -6.6413    0.7356   16.8959 H           1 STE       0.0265
     48 H28        -5.8087    1.9271   17.8596 H           1 STE       0.0265
     49 H29        -3.8964    1.5915   16.6635 H           1 STE       0.0265
     50 H30        -4.6861    2.1625   15.2025 H           1 STE       0.0265
     51 H31        -5.6243   -0.3378   15.0630 H           1 STE       0.0263
     52 H32        -4.2784   -0.6837   16.1579 H           1 STE       0.0263
     53 H33        -3.5769   -1.0559   13.8235 H           1 STE       0.0230
     54 H34        -2.7043    0.3604   14.4473 H           1 STE       0.0230
     55 H35        -4.1010    0.5772   13.3669 H           1 STE       0.0230
@<TRIPOS>BOND
     1     1     2  ar
     2     1     3  ar
     3     1     4   1
     4     4     5   1
     5     5     6   1
     6     6     7   1
     7     7     8   1
     8     8     9   1
     9     9    10   1
    10    10    11   1
    11    11    12   1
    12    12    13   1
    13    13    14   1
    14    14    15   1
    15    15    16   1
    16    16    17   1
    17    17    18   1
    18    18    19   1
    19    19    20   1
    20     4    21   1
    21     4    22   1
    22     5    23   1
    23     5    24   1
    24     6    25   1
    25     6    26   1
    26     7    27   1
    27     7    28   1
    28     8    29   1
    29     8    30   1
    30     9    31   1
    31     9    32   1
    32    10    33   1
    33    10    34   1
    34    11    35   1
    35    11    36   1
    36    12    37   1
    37    12    38   1
    38    13    39   1
    39    13    40   1
    40    14    41   1
    41    14    42   1
    42    15    43   1
    43    15    44   1
    44    16    45   1
    45    16    46   1
    46    17    47   1
    47    17    48   1
    48    18    49   1
    49    18    50   1
    50    19    51   1
    51    19    52   1
    52    20    53   1
    53    20    54   1
    54    20    55   1
@<TRIPOS>SUBSTRUCTURE
     1  STE      1

