@<TRIPOS>MOLECULE
3uex_ligand_069
    55    54
SMALL
GAST_HUCK
****
This file was generated by PARSER (from files_GN.cpp)

@<TRIPOS>ATOM
      1 C1         -3.9636   -0.2730   12.8177 C.2         1 STE       0.0348
      2 O1         -5.1283   -0.0116   13.4704 O.co2       1 STE      -0.5690
      3 O2         -3.3639   -1.4706   12.9719 O.co2       1 STE      -0.5690
      4 C2         -3.2293    0.8470   12.2041 C.3         1 STE       0.0002
      5 C3         -2.4558    1.7675   13.2004 C.3         1 STE      -0.0414
      6 C4         -2.9180    1.6810   14.6908 C.3         1 STE      -0.0516
      7 C5         -2.0710    2.5768   15.6551 C.3         1 STE      -0.0530
      8 C6         -2.2529    4.1201   15.4467 C.3         1 STE      -0.0531
      9 C7         -3.1754    4.8612   16.4681 C.3         1 STE      -0.0531
     10 C8         -4.5395    4.1704   16.7779 C.3         1 STE      -0.0531
     11 C9         -5.4878    4.9513   17.7349 C.3         1 STE      -0.0531
     12 C10        -4.8033    5.6786   18.9336 C.3         1 STE      -0.0531
     13 C11        -5.7695    6.1750   20.0533 C.3         1 STE      -0.0531
     14 C12        -7.1772    6.7041   19.6340 C.3         1 STE      -0.0531
     15 C13        -7.3105    8.2177   19.2819 C.3         1 STE      -0.0531
     16 C14        -6.3578    8.7821   18.1878 C.3         1 STE      -0.0531
     17 C15        -5.0311    9.4180   18.7167 C.3         1 STE      -0.0531
     18 C16        -5.0498   10.9709   18.8260 C.3         1 STE      -0.0533
     19 C17        -4.3312   11.7050   17.6521 C.3         1 STE      -0.0559
     20 C18        -4.0835   13.2030   17.9378 C.3         1 STE      -0.0653
     21 H1         -3.9276    1.4644   11.6272 H           1 STE       0.0430
     22 H2         -2.5058    0.4302   11.4899 H           1 STE       0.0430
     23 H3         -2.5777    2.7996   12.8468 H           1 STE       0.0283
     24 H4         -1.3841    1.5214   13.1534 H           1 STE       0.0283
     25 H5         -2.8050    0.6400   15.0243 H           1 STE       0.0266
     26 H6         -3.9771    1.9552   14.7759 H           1 STE       0.0266
     27 H7         -1.0033    2.3241   15.5222 H           1 STE       0.0265
     28 H8         -2.3271    2.3267   16.6970 H           1 STE       0.0265
     29 H9         -2.6160    4.3245   14.4300 H           1 STE       0.0265
     30 H10        -1.2586    4.5854   15.5264 H           1 STE       0.0265
     31 H11        -3.3731    5.8655   16.0645 H           1 STE       0.0265
     32 H12        -2.6239    4.9739   17.4095 H           1 STE       0.0265
     33 H13        -4.3403    3.1794   17.2165 H           1 STE       0.0265
     34 H14        -5.0839    4.0214   15.8342 H           1 STE       0.0265
     35 H15        -6.2194    4.2326   18.1288 H           1 STE       0.0265
     36 H16        -6.0301    5.6888   17.1346 H           1 STE       0.0265
     37 H17        -4.2352    6.5270   18.5465 H           1 STE       0.0265
     38 H18        -4.0865    4.9889   19.3982 H           1 STE       0.0265
     39 H19        -5.2585    6.9521   20.6332 H           1 STE       0.0265
     40 H20        -5.9264    5.3258   20.7314 H           1 STE       0.0265
     41 H21        -7.8456    6.5248   20.4829 H           1 STE       0.0265
     42 H22        -7.5617    6.1080   18.8061 H           1 STE       0.0265
     43 H23        -7.2211    8.8014   20.2021 H           1 STE       0.0265
     44 H24        -8.3410    8.3515   18.9294 H           1 STE       0.0265
     45 H25        -6.9050    9.5353   17.6101 H           1 STE       0.0265
     46 H26        -6.1150    7.9841   17.4845 H           1 STE       0.0265
     47 H27        -4.2074    9.1219   18.0640 H           1 STE       0.0265
     48 H28        -4.8028    9.0081   19.7035 H           1 STE       0.0265
     49 H29        -4.5487   11.2596   19.7595 H           1 STE       0.0265
     50 H30        -6.0840   11.3260   18.8841 H           1 STE       0.0265
     51 H31        -4.9334   11.6212   16.7447 H           1 STE       0.0263
     52 H32        -3.3648   11.2174   17.4696 H           1 STE       0.0263
     53 H33        -3.5250   13.6426   17.1046 H           1 STE       0.0230
     54 H34        -3.5040   13.3292   18.8586 H           1 STE       0.0230
     55 H35        -5.0362   13.7307   18.0382 H           1 STE       0.0230
@<TRIPOS>BOND
     1     1     2  ar
     2     1     3  ar
     3     1     4   1
     4     4     5   1
     5     5     6   1
     6     6     7   1
     7     7     8   1
     8     8     9   1
     9     9    10   1
    10    10    11   1
    11    11    12   1
    12    12    13   1
    13    13    14   1
    14    14    15   1
    15    15    16   1
    16    16    17   1
    17    17    18   1
    18    18    19   1
    19    19    20   1
    20     4    21   1
    21     4    22   1
    22     5    23   1
    23     5    24   1
    24     6    25   1
    25     6    26   1
    26     7    27   1
    27     7    28   1
    28     8    29   1
    29     8    30   1
    30     9    31   1
    31     9    32   1
    32    10    33   1
    33    10    34   1
    34    11    35   1
    35    11    36   1
    36    12    37   1
    37    12    38   1
    38    13    39   1
    39    13    40   1
    40    14    41   1
    41    14    42   1
    42    15    43   1
    43    15    44   1
    44    16    45   1
    45    16    46   1
    46    17    47   1
    47    17    48   1
    48    18    49   1
    49    18    50   1
    50    19    51   1
    51    19    52   1
    52    20    53   1
    53    20    54   1
    54    20    55   1
@<TRIPOS>SUBSTRUCTURE
     1  STE      1

