@<TRIPOS>MOLECULE
3uex_ligand_077
    55    54
SMALL
GAST_HUCK
****
This file was generated by PARSER (from files_GN.cpp)

@<TRIPOS>ATOM
      1 C1         -3.2053   -0.8819   12.0401 C.2         1 STE       0.0348
      2 O1         -3.5105   -1.8536   11.1400 O.co2       1 STE      -0.5690
      3 O2         -1.9474   -0.3844   12.0742 O.co2       1 STE      -0.5690
      4 C2         -4.2768   -0.2908   12.8681 C.3         1 STE       0.0002
      5 C3         -4.8125   -1.2784   13.9564 C.3         1 STE      -0.0414
      6 C4         -4.3162   -0.9321   15.3934 C.3         1 STE      -0.0516
      7 C5         -5.1491    0.1828   16.1096 C.3         1 STE      -0.0530
      8 C6         -4.2683    1.2632   16.8187 C.3         1 STE      -0.0531
      9 C7         -4.0682    2.5591   15.9750 C.3         1 STE      -0.0531
     10 C8         -2.9780    3.5434   16.4984 C.3         1 STE      -0.0531
     11 C9         -2.7819    3.6665   18.0325 C.3         1 STE      -0.0531
     12 C10        -3.9323    4.3637   18.8233 C.3         1 STE      -0.0531
     13 C11        -3.8131    5.9198   18.9842 C.3         1 STE      -0.0531
     14 C12        -4.9164    6.7390   18.2463 C.3         1 STE      -0.0531
     15 C13        -5.1669    8.1446   18.8880 C.3         1 STE      -0.0531
     16 C14        -6.6063    8.7043   18.6820 C.3         1 STE      -0.0531
     17 C15        -7.7903    7.8410   19.2324 C.3         1 STE      -0.0531
     18 C16        -7.6236    7.3385   20.7015 C.3         1 STE      -0.0533
     19 C17        -8.9224    6.7788   21.3583 C.3         1 STE      -0.0559
     20 C18       -10.0112    7.8510   21.6295 C.3         1 STE      -0.0653
     21 H1         -5.1049    0.0112   12.2088 H           1 STE       0.0430
     22 H2         -3.8921    0.6205   13.3534 H           1 STE       0.0430
     23 H3         -4.5100   -2.3062   13.7043 H           1 STE       0.0283
     24 H4         -5.9089   -1.2627   13.9386 H           1 STE       0.0283
     25 H5         -3.2561   -0.6554   15.3382 H           1 STE       0.0266
     26 H6         -4.3694   -1.8478   15.9996 H           1 STE       0.0266
     27 H7         -5.7874   -0.3166   16.8526 H           1 STE       0.0265
     28 H8         -5.8270    0.6680   15.3972 H           1 STE       0.0265
     29 H9         -3.3008    0.8220   17.0800 H           1 STE       0.0265
     30 H10        -4.7653    1.5323   17.7574 H           1 STE       0.0265
     31 H11        -5.0309    3.0764   15.9122 H           1 STE       0.0265
     32 H12        -3.7862    2.2661   14.9543 H           1 STE       0.0265
     33 H13        -3.1962    4.5313   16.0800 H           1 STE       0.0265
     34 H14        -2.0240    3.2204   16.0686 H           1 STE       0.0265
     35 H15        -1.8440    4.2048   18.2062 H           1 STE       0.0265
     36 H16        -2.6523    2.6525   18.4332 H           1 STE       0.0265
     37 H17        -3.9231    3.9220   19.8243 H           1 STE       0.0265
     38 H18        -4.8992    4.0871   18.3857 H           1 STE       0.0265
     39 H19        -2.8280    6.2741   18.6492 H           1 STE       0.0265
     40 H20        -3.8804    6.1363   20.0575 H           1 STE       0.0265
     41 H21        -5.8551    6.1679   18.2621 H           1 STE       0.0265
     42 H22        -4.6231    6.8728   17.1983 H           1 STE       0.0265
     43 H23        -4.4577    8.8593   18.4558 H           1 STE       0.0265
     44 H24        -4.9711    8.1096   19.9667 H           1 STE       0.0265
     45 H25        -6.7779    8.8547   17.6077 H           1 STE       0.0265
     46 H26        -6.6600    9.6896   19.1629 H           1 STE       0.0265
     47 H27        -7.9044    6.9635   18.5792 H           1 STE       0.0265
     48 H28        -8.7133    8.4406   19.1655 H           1 STE       0.0265
     49 H29        -7.2282    8.1532   21.3155 H           1 STE       0.0265
     50 H30        -6.8910    6.5210   20.7029 H           1 STE       0.0265
     51 H31        -8.6515    6.3355   22.3262 H           1 STE       0.0263
     52 H32        -9.3390    5.9746   20.7368 H           1 STE       0.0263
     53 H33       -10.8444    7.3891   22.1875 H           1 STE       0.0230
     54 H34       -10.3876    8.2504   20.6771 H           1 STE       0.0230
     55 H35        -9.5864    8.6684   22.2381 H           1 STE       0.0230
@<TRIPOS>BOND
     1     1     2  ar
     2     1     3  ar
     3     1     4   1
     4     4     5   1
     5     5     6   1
     6     6     7   1
     7     7     8   1
     8     8     9   1
     9     9    10   1
    10    10    11   1
    11    11    12   1
    12    12    13   1
    13    13    14   1
    14    14    15   1
    15    15    16   1
    16    16    17   1
    17    17    18   1
    18    18    19   1
    19    19    20   1
    20     4    21   1
    21     4    22   1
    22     5    23   1
    23     5    24   1
    24     6    25   1
    25     6    26   1
    26     7    27   1
    27     7    28   1
    28     8    29   1
    29     8    30   1
    30     9    31   1
    31     9    32   1
    32    10    33   1
    33    10    34   1
    34    11    35   1
    35    11    36   1
    36    12    37   1
    37    12    38   1
    38    13    39   1
    39    13    40   1
    40    14    41   1
    41    14    42   1
    42    15    43   1
    43    15    44   1
    44    16    45   1
    45    16    46   1
    46    17    47   1
    47    17    48   1
    48    18    49   1
    49    18    50   1
    50    19    51   1
    51    19    52   1
    52    20    53   1
    53    20    54   1
    54    20    55   1
@<TRIPOS>SUBSTRUCTURE
     1  STE      1

