@<TRIPOS>MOLECULE
3uex_ligand_073
    55    54
SMALL
GAST_HUCK
****
This file was generated by PARSER (from files_GN.cpp)

@<TRIPOS>ATOM
      1 C1        -12.6630   -0.0397   21.1030 C.2         1 STE       0.0348
      2 O1        -12.4175   -1.2429   21.6808 O.co2       1 STE      -0.5690
      3 O2        -12.9075    0.0080   19.7671 O.co2       1 STE      -0.5690
      4 C2        -12.6003    1.1787   21.9414 C.3         1 STE       0.0002
      5 C3        -12.9947    2.4856   21.1835 C.3         1 STE      -0.0414
      6 C4        -13.0478    3.7583   22.0906 C.3         1 STE      -0.0516
      7 C5        -11.7991    4.6825   22.0357 C.3         1 STE      -0.0530
      8 C6        -10.4474    3.9961   22.3846 C.3         1 STE      -0.0531
      9 C7         -9.2035    4.9139   22.2243 C.3         1 STE      -0.0531
     10 C8         -8.3824    4.6759   20.9237 C.3         1 STE      -0.0531
     11 C9         -7.3476    3.5101   21.0336 C.3         1 STE      -0.0531
     12 C10        -6.6722    3.1468   19.6824 C.3         1 STE      -0.0531
     13 C11        -5.4606    4.0591   19.2889 C.3         1 STE      -0.0531
     14 C12        -5.5059    4.5813   17.8203 C.3         1 STE      -0.0531
     15 C13        -6.5887    5.6685   17.5352 C.3         1 STE      -0.0531
     16 C14        -6.1103    7.1532   17.5693 C.3         1 STE      -0.0531
     17 C15        -6.1245    7.8441   18.9704 C.3         1 STE      -0.0531
     18 C16        -4.7249    8.0527   19.6168 C.3         1 STE      -0.0533
     19 C17        -3.9620    9.3241   19.1043 C.3         1 STE      -0.0559
     20 C18        -2.7532    8.9995   18.1985 C.3         1 STE      -0.0653
     21 H1        -11.5789    1.2647   22.3288 H           1 STE       0.0430
     22 H2        -13.2866    1.0453   22.7899 H           1 STE       0.0430
     23 H3        -13.9945    2.3368   20.7612 H           1 STE       0.0283
     24 H4        -12.3020    2.6649   20.3563 H           1 STE       0.0283
     25 H5        -13.2443    3.4734   23.1316 H           1 STE       0.0266
     26 H6        -13.9016    4.3691   21.7628 H           1 STE       0.0266
     27 H7        -11.9525    5.5008   22.7539 H           1 STE       0.0265
     28 H8        -11.7324    5.1323   21.0378 H           1 STE       0.0265
     29 H9        -10.3106    3.1149   21.7600 H           1 STE       0.0265
     30 H10       -10.4945    3.6650   23.4309 H           1 STE       0.0265
     31 H11        -8.5438    4.7686   23.0876 H           1 STE       0.0265
     32 H12        -9.5249    5.9614   22.2458 H           1 STE       0.0265
     33 H13        -7.8412    5.5968   20.6963 H           1 STE       0.0265
     34 H14        -9.0637    4.4785   20.0918 H           1 STE       0.0265
     35 H15        -7.8591    2.6198   21.3986 H           1 STE       0.0265
     36 H16        -6.5734    3.7777   21.7631 H           1 STE       0.0265
     37 H17        -7.4375    3.1475   18.8977 H           1 STE       0.0265
     38 H18        -6.3073    2.1154   19.7502 H           1 STE       0.0265
     39 H19        -4.5399    3.4801   19.4119 H           1 STE       0.0265
     40 H20        -5.3755    4.9154   19.9626 H           1 STE       0.0265
     41 H21        -5.6914    3.7165   17.1710 H           1 STE       0.0265
     42 H22        -4.5164    4.9689   17.5482 H           1 STE       0.0265
     43 H23        -7.4301    5.5576   18.2234 H           1 STE       0.0265
     44 H24        -6.9813    5.4867   16.5321 H           1 STE       0.0265
     45 H25        -6.7791    7.7129   16.9133 H           1 STE       0.0265
     46 H26        -5.1131    7.2116   17.1241 H           1 STE       0.0265
     47 H27        -6.7483    7.2758   19.6588 H           1 STE       0.0265
     48 H28        -6.6098    8.8256   18.8819 H           1 STE       0.0265
     49 H29        -4.1197    7.1533   19.4758 H           1 STE       0.0265
     50 H30        -4.8685    8.1603   20.6964 H           1 STE       0.0265
     51 H31        -3.6005    9.9041   19.9588 H           1 STE       0.0263
     52 H32        -4.6279    9.9814   18.5427 H           1 STE       0.0263
     53 H33        -2.2629    9.9256   17.8842 H           1 STE       0.0230
     54 H34        -3.0767    8.4515   17.3126 H           1 STE       0.0230
     55 H35        -2.0234    8.3987   18.7440 H           1 STE       0.0230
@<TRIPOS>BOND
     1     1     2  ar
     2     1     3  ar
     3     1     4   1
     4     4     5   1
     5     5     6   1
     6     6     7   1
     7     7     8   1
     8     8     9   1
     9     9    10   1
    10    10    11   1
    11    11    12   1
    12    12    13   1
    13    13    14   1
    14    14    15   1
    15    15    16   1
    16    16    17   1
    17    17    18   1
    18    18    19   1
    19    19    20   1
    20     4    21   1
    21     4    22   1
    22     5    23   1
    23     5    24   1
    24     6    25   1
    25     6    26   1
    26     7    27   1
    27     7    28   1
    28     8    29   1
    29     8    30   1
    30     9    31   1
    31     9    32   1
    32    10    33   1
    33    10    34   1
    34    11    35   1
    35    11    36   1
    36    12    37   1
    37    12    38   1
    38    13    39   1
    39    13    40   1
    40    14    41   1
    41    14    42   1
    42    15    43   1
    43    15    44   1
    44    16    45   1
    45    16    46   1
    46    17    47   1
    47    17    48   1
    48    18    49   1
    49    18    50   1
    50    19    51   1
    51    19    52   1
    52    20    53   1
    53    20    54   1
    54    20    55   1
@<TRIPOS>SUBSTRUCTURE
     1  STE      1

