@<TRIPOS>MOLECULE
3uex_ligand_001
    55    54
SMALL
GAST_HUCK
****
This file was generated by PARSER (from files_GN.cpp)

@<TRIPOS>ATOM
      1 C1         -7.7097    3.5760   15.1828 C.2         1 STE       0.0348
      2 O1         -7.4613    4.2696   14.0490 O.co2       1 STE      -0.5690
      3 O2         -8.8816    3.8134   15.8252 O.co2       1 STE      -0.5690
      4 C2         -6.7133    2.6387   15.7496 C.3         1 STE       0.0002
      5 C3         -6.6194    2.6048   17.3076 C.3         1 STE      -0.0414
      6 C4         -6.6616    3.9788   18.0455 C.3         1 STE      -0.0516
      7 C5         -5.5909    5.0202   17.5988 C.3         1 STE      -0.0530
      8 C6         -6.1055    6.4901   17.5892 C.3         1 STE      -0.0531
      9 C7         -6.8450    6.9848   18.8801 C.3         1 STE      -0.0531
     10 C8         -6.0047    7.8642   19.8501 C.3         1 STE      -0.0531
     11 C9         -4.6760    7.2372   20.3980 C.3         1 STE      -0.0531
     12 C10        -3.3675    7.7814   19.7542 C.3         1 STE      -0.0531
     13 C11        -2.9800    9.2070   20.2447 C.3         1 STE      -0.0531
     14 C12        -1.5136    9.6297   19.9220 C.3         1 STE      -0.0531
     15 C13        -1.3628   11.1321   19.5437 C.3         1 STE      -0.0531
     16 C14        -1.5896   12.1269   20.7180 C.3         1 STE      -0.0531
     17 C15        -2.3316   13.4348   20.3281 C.3         1 STE      -0.0531
     18 C16        -1.6483   14.2887   19.2210 C.3         1 STE      -0.0533
     19 C17        -1.9254   15.8128   19.3408 C.3         1 STE      -0.0559
     20 C18        -3.2783   16.2704   18.7411 C.3         1 STE      -0.0653
     21 H1         -5.7248    2.8837   15.3450 H           1 STE       0.0430
     22 H2         -6.9752    1.6299   15.4034 H           1 STE       0.0430
     23 H3         -5.6923    2.0803   17.5902 H           1 STE       0.0283
     24 H4         -7.4522    1.9992   17.6854 H           1 STE       0.0283
     25 H5         -6.5293    3.7791   19.1165 H           1 STE       0.0266
     26 H6         -7.6707    4.3939   17.9146 H           1 STE       0.0266
     27 H7         -5.2619    4.7881   16.5768 H           1 STE       0.0265
     28 H8         -4.7087    4.9349   18.2511 H           1 STE       0.0265
     29 H9         -6.8023    6.5767   16.7454 H           1 STE       0.0265
     30 H10        -5.2611    7.1496   17.3634 H           1 STE       0.0265
     31 H11        -7.2599    6.1454   19.4459 H           1 STE       0.0265
     32 H12        -7.6953    7.5987   18.5565 H           1 STE       0.0265
     33 H13        -6.6491    8.0810   20.7120 H           1 STE       0.0265
     34 H14        -5.8158    8.8203   19.3486 H           1 STE       0.0265
     35 H15        -4.6952    6.1508   20.2608 H           1 STE       0.0265
     36 H16        -4.6145    7.4102   21.4801 H           1 STE       0.0265
     37 H17        -3.4860    7.7879   18.6644 H           1 STE       0.0265
     38 H18        -2.5509    7.0969   20.0024 H           1 STE       0.0265
     39 H19        -3.1320    9.2533   21.3284 H           1 STE       0.0265
     40 H20        -3.6722    9.9244   19.7967 H           1 STE       0.0265
     41 H21        -1.1389    9.0401   19.0788 H           1 STE       0.0265
     42 H22        -0.8755    9.3987   20.7802 H           1 STE       0.0265
     43 H23        -2.0702   11.3464   18.7382 H           1 STE       0.0265
     44 H24        -0.3562   11.2851   19.1457 H           1 STE       0.0265
     45 H25        -0.6230   12.3782   21.1656 H           1 STE       0.0265
     46 H26        -2.1920   11.6460   21.4956 H           1 STE       0.0265
     47 H27        -2.4193   14.0413   21.2353 H           1 STE       0.0265
     48 H28        -3.3444   13.1795   20.0050 H           1 STE       0.0265
     49 H29        -1.9810   13.9439   18.2371 H           1 STE       0.0265
     50 H30        -0.5675   14.1366   19.2738 H           1 STE       0.0265
     51 H31        -1.1262   16.3521   18.8229 H           1 STE       0.0263
     52 H32        -1.8891   16.1069   20.3960 H           1 STE       0.0263
     53 H33        -3.4018   17.3463   18.8886 H           1 STE       0.0230
     54 H34        -4.1141   15.7600   19.2250 H           1 STE       0.0230
     55 H35        -3.3047   16.0573   17.6683 H           1 STE       0.0230
@<TRIPOS>BOND
     1     1     2  ar
     2     1     3  ar
     3     1     4   1
     4     4     5   1
     5     5     6   1
     6     6     7   1
     7     7     8   1
     8     8     9   1
     9     9    10   1
    10    10    11   1
    11    11    12   1
    12    12    13   1
    13    13    14   1
    14    14    15   1
    15    15    16   1
    16    16    17   1
    17    17    18   1
    18    18    19   1
    19    19    20   1
    20     4    21   1
    21     4    22   1
    22     5    23   1
    23     5    24   1
    24     6    25   1
    25     6    26   1
    26     7    27   1
    27     7    28   1
    28     8    29   1
    29     8    30   1
    30     9    31   1
    31     9    32   1
    32    10    33   1
    33    10    34   1
    34    11    35   1
    35    11    36   1
    36    12    37   1
    37    12    38   1
    38    13    39   1
    39    13    40   1
    40    14    41   1
    41    14    42   1
    42    15    43   1
    43    15    44   1
    44    16    45   1
    45    16    46   1
    46    17    47   1
    47    17    48   1
    48    18    49   1
    49    18    50   1
    50    19    51   1
    51    19    52   1
    52    20    53   1
    53    20    54   1
    54    20    55   1
@<TRIPOS>SUBSTRUCTURE
     1  STE      1

