@<TRIPOS>MOLECULE
3uex_ligand_007
    55    54
SMALL
GAST_HUCK
****
This file was generated by PARSER (from files_GN.cpp)

@<TRIPOS>ATOM
      1 C1         -5.2228    0.3011   15.7730 C.2         1 STE       0.0348
      2 O1         -4.3083   -0.4649   16.4233 O.co2       1 STE      -0.5690
      3 O2         -5.2142    0.2824   14.4269 O.co2       1 STE      -0.5690
      4 C2         -6.1502    1.1758   16.5235 C.3         1 STE       0.0002
      5 C3         -6.6544    0.5306   17.8440 C.3         1 STE      -0.0414
      6 C4         -7.4735    1.4662   18.7799 C.3         1 STE      -0.0516
      7 C5         -9.0176    1.5623   18.5316 C.3         1 STE      -0.0530
      8 C6         -9.8522    1.7399   19.8391 C.3         1 STE      -0.0531
      9 C7         -9.3718    2.9351   20.7227 C.3         1 STE      -0.0531
     10 C8        -10.0849    3.0951   22.1015 C.3         1 STE      -0.0531
     11 C9        -11.6013    3.4571   22.0794 C.3         1 STE      -0.0531
     12 C10       -11.9784    4.9337   21.7524 C.3         1 STE      -0.0531
     13 C11       -11.4066    6.0386   22.7078 C.3         1 STE      -0.0531
     14 C12       -10.4503    7.0720   22.0405 C.3         1 STE      -0.0531
     15 C13        -9.1298    6.4311   21.5190 C.3         1 STE      -0.0531
     16 C14        -8.1383    7.4438   20.8680 C.3         1 STE      -0.0531
     17 C15        -6.8150    6.7678   20.3749 C.3         1 STE      -0.0531
     18 C16        -6.6424    6.5915   18.8304 C.3         1 STE      -0.0533
     19 C17        -6.4479    7.8698   17.9457 C.3         1 STE      -0.0559
     20 C18        -6.2270    9.2252   18.6789 C.3         1 STE      -0.0653
     21 H1         -7.0085    1.4261   15.8919 H           1 STE       0.0430
     22 H2         -5.6153    2.0973   16.7569 H           1 STE       0.0430
     23 H3         -5.7705    0.2092   18.4084 H           1 STE       0.0283
     24 H4         -7.2402   -0.3661   17.6208 H           1 STE       0.0283
     25 H5         -7.0443    2.4736   18.7333 H           1 STE       0.0266
     26 H6         -7.3189    1.1022   19.8038 H           1 STE       0.0266
     27 H7         -9.3590    0.6502   18.0343 H           1 STE       0.0265
     28 H8         -9.2248    2.4033   17.8621 H           1 STE       0.0265
     29 H9         -9.7924    0.8096   20.4159 H           1 STE       0.0265
     30 H10       -10.9025    1.8943   19.5612 H           1 STE       0.0265
     31 H11        -9.4728    3.8592   20.1444 H           1 STE       0.0265
     32 H12        -8.3049    2.7883   20.9245 H           1 STE       0.0265
     33 H13        -9.5634    3.8747   22.6652 H           1 STE       0.0265
     34 H14        -9.9666    2.1659   22.6692 H           1 STE       0.0265
     35 H15       -12.0115    3.2149   23.0649 H           1 STE       0.0265
     36 H16       -12.0952    2.8054   21.3510 H           1 STE       0.0265
     37 H17       -13.0704    4.9855   21.8022 H           1 STE       0.0265
     38 H18       -11.7095    5.1473   20.7158 H           1 STE       0.0265
     39 H19       -10.8967    5.5891   23.5666 H           1 STE       0.0265
     40 H20       -12.2519    6.6041   23.1198 H           1 STE       0.0265
     41 H21       -10.2044    7.8379   22.7851 H           1 STE       0.0265
     42 H22       -10.9676    7.5675   21.2115 H           1 STE       0.0265
     43 H23        -9.3696    5.6699   20.7716 H           1 STE       0.0265
     44 H24        -8.6339    5.9299   22.3644 H           1 STE       0.0265
     45 H25        -7.8835    8.1942   21.6233 H           1 STE       0.0265
     46 H26        -8.6340    7.9571   20.0402 H           1 STE       0.0265
     47 H27        -6.7251    5.7699   20.8284 H           1 STE       0.0265
     48 H28        -5.9589    7.3461   20.7467 H           1 STE       0.0265
     49 H29        -7.4987    6.0237   18.4486 H           1 STE       0.0265
     50 H30        -5.7626    5.9507   18.6894 H           1 STE       0.0265
     51 H31        -7.3197    7.9831   17.2854 H           1 STE       0.0263
     52 H32        -5.5788    7.7022   17.2904 H           1 STE       0.0263
     53 H33        -6.0123   10.0187   17.9518 H           1 STE       0.0230
     54 H34        -5.3815    9.1419   19.3731 H           1 STE       0.0230
     55 H35        -7.1346    9.4971   19.2264 H           1 STE       0.0230
@<TRIPOS>BOND
     1     1     2  ar
     2     1     3  ar
     3     1     4   1
     4     4     5   1
     5     5     6   1
     6     6     7   1
     7     7     8   1
     8     8     9   1
     9     9    10   1
    10    10    11   1
    11    11    12   1
    12    12    13   1
    13    13    14   1
    14    14    15   1
    15    15    16   1
    16    16    17   1
    17    17    18   1
    18    18    19   1
    19    19    20   1
    20     4    21   1
    21     4    22   1
    22     5    23   1
    23     5    24   1
    24     6    25   1
    25     6    26   1
    26     7    27   1
    27     7    28   1
    28     8    29   1
    29     8    30   1
    30     9    31   1
    31     9    32   1
    32    10    33   1
    33    10    34   1
    34    11    35   1
    35    11    36   1
    36    12    37   1
    37    12    38   1
    38    13    39   1
    39    13    40   1
    40    14    41   1
    41    14    42   1
    42    15    43   1
    43    15    44   1
    44    16    45   1
    45    16    46   1
    46    17    47   1
    47    17    48   1
    48    18    49   1
    49    18    50   1
    50    19    51   1
    51    19    52   1
    52    20    53   1
    53    20    54   1
    54    20    55   1
@<TRIPOS>SUBSTRUCTURE
     1  STE      1

