@<TRIPOS>MOLECULE
3uex_ligand_015
    55    54
SMALL
GAST_HUCK
****
This file was generated by PARSER (from files_GN.cpp)

@<TRIPOS>ATOM
      1 C1         -4.8231   -0.3108   15.4554 C.2         1 STE       0.0348
      2 O1         -4.2208   -1.5144   15.5521 O.co2       1 STE      -0.5690
      3 O2         -5.3516    0.0244   14.2479 O.co2       1 STE      -0.5690
      4 C2         -5.0080    0.5132   16.6629 C.3         1 STE       0.0002
      5 C3         -5.3226    2.0184   16.4533 C.3         1 STE      -0.0414
      6 C4         -6.8281    2.4025   16.3595 C.3         1 STE      -0.0516
      7 C5         -7.0689    3.9314   16.4877 C.3         1 STE      -0.0530
      8 C6         -6.9502    4.4800   17.9425 C.3         1 STE      -0.0531
      9 C7         -6.6313    6.0008   18.0337 C.3         1 STE      -0.0531
     10 C8         -5.1904    6.3484   18.5256 C.3         1 STE      -0.0531
     11 C9         -4.8152    5.7906   19.9359 C.3         1 STE      -0.0531
     12 C10        -3.6818    4.7263   19.9137 C.3         1 STE      -0.0531
     13 C11        -3.3340    4.0947   21.3034 C.3         1 STE      -0.0531
     14 C12        -2.0115    4.5876   21.9552 C.3         1 STE      -0.0531
     15 C13        -0.7213    4.3205   21.1108 C.3         1 STE      -0.0531
     16 C14         0.2720    5.5069   20.9599 C.3         1 STE      -0.0531
     17 C15        -0.0753    6.5680   19.8722 C.3         1 STE      -0.0531
     18 C16        -0.7888    7.8352   20.4145 C.3         1 STE      -0.0533
     19 C17        -1.0707    8.9058   19.3365 C.3         1 STE      -0.0559
     20 C18        -1.3314   10.3029   19.9615 C.3         1 STE      -0.0653
     21 H1         -4.0734    0.4464   17.2290 H           1 STE       0.0430
     22 H2         -5.7913    0.0626   17.2767 H           1 STE       0.0430
     23 H3         -4.8089    2.3649   15.5444 H           1 STE       0.0283
     24 H4         -4.8851    2.5577   17.2970 H           1 STE       0.0283
     25 H5         -7.3894    1.8734   17.1383 H           1 STE       0.0266
     26 H6         -7.2211    2.0732   15.3985 H           1 STE       0.0266
     27 H7         -8.0752    4.1659   16.1274 H           1 STE       0.0265
     28 H8         -6.3687    4.4650   15.8327 H           1 STE       0.0265
     29 H9         -6.1945    3.9155   18.4970 H           1 STE       0.0265
     30 H10        -7.9066    4.2909   18.4470 H           1 STE       0.0265
     31 H11        -7.3511    6.4790   18.7105 H           1 STE       0.0265
     32 H12        -6.7795    6.4545   17.0458 H           1 STE       0.0265
     33 H13        -5.1165    7.4402   18.5539 H           1 STE       0.0265
     34 H14        -4.4816    6.0087   17.7603 H           1 STE       0.0265
     35 H15        -5.6983    5.3428   20.4009 H           1 STE       0.0265
     36 H16        -4.5042    6.6207   20.5833 H           1 STE       0.0265
     37 H17        -2.7950    5.1970   19.4759 H           1 STE       0.0265
     38 H18        -3.9878    3.9213   19.2380 H           1 STE       0.0265
     39 H19        -3.2727    3.0037   21.1889 H           1 STE       0.0265
     40 H20        -4.1542    4.2891   22.0113 H           1 STE       0.0265
     41 H21        -1.9068    4.0779   22.9214 H           1 STE       0.0265
     42 H22        -2.1328    5.6415   22.1923 H           1 STE       0.0265
     43 H23        -0.9844    3.9585   20.1142 H           1 STE       0.0265
     44 H24        -0.1884    3.4916   21.5957 H           1 STE       0.0265
     45 H25         1.2297    5.0651   20.6859 H           1 STE       0.0265
     46 H26         0.4226    5.9818   21.9308 H           1 STE       0.0265
     47 H27        -0.6846    6.1153   19.0898 H           1 STE       0.0265
     48 H28         0.8538    6.8952   19.4018 H           1 STE       0.0265
     49 H29        -0.1752    8.2694   21.2060 H           1 STE       0.0265
     50 H30        -1.7487    7.5699   20.8465 H           1 STE       0.0265
     51 H31        -1.9514    8.6223   18.7577 H           1 STE       0.0263
     52 H32        -0.2295    8.9932   18.6462 H           1 STE       0.0263
     53 H33        -1.5894   11.0234   19.1829 H           1 STE       0.0230
     54 H34        -0.4407   10.6586   20.4827 H           1 STE       0.0230
     55 H35        -2.1581   10.2504   20.6718 H           1 STE       0.0230
@<TRIPOS>BOND
     1     1     2  ar
     2     1     3  ar
     3     1     4   1
     4     4     5   1
     5     5     6   1
     6     6     7   1
     7     7     8   1
     8     8     9   1
     9     9    10   1
    10    10    11   1
    11    11    12   1
    12    12    13   1
    13    13    14   1
    14    14    15   1
    15    15    16   1
    16    16    17   1
    17    17    18   1
    18    18    19   1
    19    19    20   1
    20     4    21   1
    21     4    22   1
    22     5    23   1
    23     5    24   1
    24     6    25   1
    25     6    26   1
    26     7    27   1
    27     7    28   1
    28     8    29   1
    29     8    30   1
    30     9    31   1
    31     9    32   1
    32    10    33   1
    33    10    34   1
    34    11    35   1
    35    11    36   1
    36    12    37   1
    37    12    38   1
    38    13    39   1
    39    13    40   1
    40    14    41   1
    41    14    42   1
    42    15    43   1
    43    15    44   1
    44    16    45   1
    45    16    46   1
    46    17    47   1
    47    17    48   1
    48    18    49   1
    49    18    50   1
    50    19    51   1
    51    19    52   1
    52    20    53   1
    53    20    54   1
    54    20    55   1
@<TRIPOS>SUBSTRUCTURE
     1  STE      1

