@<TRIPOS>MOLECULE
3uex_ligand_070
    55    54
SMALL
GAST_HUCK
****
This file was generated by PARSER (from files_GN.cpp)

@<TRIPOS>ATOM
      1 C1         -5.2678    0.1610   15.4831 C.2         1 STE       0.0348
      2 O1         -4.2275   -0.4398   16.0956 O.co2       1 STE      -0.5690
      3 O2         -5.2009    0.1859   14.1309 O.co2       1 STE      -0.5690
      4 C2         -6.0282    1.2382   16.1566 C.3         1 STE       0.0002
      5 C3         -6.5340    0.9302   17.5984 C.3         1 STE      -0.0414
      6 C4         -5.4841    0.7554   18.7432 C.3         1 STE      -0.0516
      7 C5         -4.7012    2.0221   19.2075 C.3         1 STE      -0.0530
      8 C6         -3.5263    2.4763   18.2786 C.3         1 STE      -0.0531
      9 C7         -3.6935    3.9028   17.6634 C.3         1 STE      -0.0531
     10 C8         -3.0207    5.0520   18.4640 C.3         1 STE      -0.0531
     11 C9         -3.5302    5.3320   19.9063 C.3         1 STE      -0.0531
     12 C10        -4.9833    5.8646   20.0460 C.3         1 STE      -0.0531
     13 C11        -5.3120    7.1351   19.2058 C.3         1 STE      -0.0531
     14 C12        -6.3770    8.0603   19.8582 C.3         1 STE      -0.0531
     15 C13        -7.8645    7.5792   19.8176 C.3         1 STE      -0.0531
     16 C14        -8.5576    7.4865   21.2116 C.3         1 STE      -0.0531
     17 C15       -10.1096    7.6341   21.1993 C.3         1 STE      -0.0531
     18 C16       -10.7489    7.7111   22.6231 C.3         1 STE      -0.0533
     19 C17       -11.2235    6.3755   23.2757 C.3         1 STE      -0.0559
     20 C18       -10.3485    5.1116   23.0723 C.3         1 STE      -0.0653
     21 H1         -6.9060    1.4644   15.5418 H           1 STE       0.0430
     22 H2         -5.4155    2.1387   16.1782 H           1 STE       0.0430
     23 H3         -7.1437    0.0209   17.5571 H           1 STE       0.0283
     24 H4         -7.2076    1.7450   17.8880 H           1 STE       0.0283
     25 H5         -4.7717   -0.0322   18.4889 H           1 STE       0.0266
     26 H6         -6.0417    0.3955   19.6169 H           1 STE       0.0266
     27 H7         -4.2722    1.7983   20.1928 H           1 STE       0.0265
     28 H8         -5.4224    2.8296   19.3625 H           1 STE       0.0265
     29 H9         -3.4078    1.7604   17.4614 H           1 STE       0.0265
     30 H10        -2.5838    2.4419   18.8413 H           1 STE       0.0265
     31 H11        -4.7493    4.1326   17.4946 H           1 STE       0.0265
     32 H12        -3.2244    3.8954   16.6726 H           1 STE       0.0265
     33 H13        -3.1104    5.9707   17.8774 H           1 STE       0.0265
     34 H14        -1.9524    4.8220   18.5317 H           1 STE       0.0265
     35 H15        -2.8564    6.0714   20.3483 H           1 STE       0.0265
     36 H16        -3.4268    4.4203   20.5035 H           1 STE       0.0265
     37 H17        -5.1199    6.0814   21.1101 H           1 STE       0.0265
     38 H18        -5.6892    5.0778   19.7779 H           1 STE       0.0265
     39 H19        -5.6385    6.8420   18.2027 H           1 STE       0.0265
     40 H20        -4.4008    7.7338   19.0826 H           1 STE       0.0265
     41 H21        -6.3283    9.0243   19.3525 H           1 STE       0.0265
     42 H22        -6.0580    8.2400   20.8872 H           1 STE       0.0265
     43 H23        -7.9399    6.6093   19.3224 H           1 STE       0.0265
     44 H24        -8.4278    8.2896   19.2098 H           1 STE       0.0265
     45 H25        -8.1714    8.2867   21.8543 H           1 STE       0.0265
     46 H26        -8.3030    6.5271   21.6736 H           1 STE       0.0265
     47 H27       -10.5749    6.8169   20.6430 H           1 STE       0.0265
     48 H28       -10.3578    8.5638   20.6699 H           1 STE       0.0265
     49 H29       -11.6305    8.3587   22.5735 H           1 STE       0.0265
     50 H30       -10.0533    8.2120   23.3040 H           1 STE       0.0265
     51 H31       -12.2313    6.1476   22.9104 H           1 STE       0.0263
     52 H32       -11.3024    6.5507   24.3541 H           1 STE       0.0263
     53 H33       -10.7816    4.2732   23.6355 H           1 STE       0.0230
     54 H34        -9.3260    5.2877   23.4228 H           1 STE       0.0230
     55 H35       -10.3275    4.8242   22.0173 H           1 STE       0.0230
@<TRIPOS>BOND
     1     1     2  ar
     2     1     3  ar
     3     1     4   1
     4     4     5   1
     5     5     6   1
     6     6     7   1
     7     7     8   1
     8     8     9   1
     9     9    10   1
    10    10    11   1
    11    11    12   1
    12    12    13   1
    13    13    14   1
    14    14    15   1
    15    15    16   1
    16    16    17   1
    17    17    18   1
    18    18    19   1
    19    19    20   1
    20     4    21   1
    21     4    22   1
    22     5    23   1
    23     5    24   1
    24     6    25   1
    25     6    26   1
    26     7    27   1
    27     7    28   1
    28     8    29   1
    29     8    30   1
    30     9    31   1
    31     9    32   1
    32    10    33   1
    33    10    34   1
    34    11    35   1
    35    11    36   1
    36    12    37   1
    37    12    38   1
    38    13    39   1
    39    13    40   1
    40    14    41   1
    41    14    42   1
    42    15    43   1
    43    15    44   1
    44    16    45   1
    45    16    46   1
    46    17    47   1
    47    17    48   1
    48    18    49   1
    49    18    50   1
    50    19    51   1
    51    19    52   1
    52    20    53   1
    53    20    54   1
    54    20    55   1
@<TRIPOS>SUBSTRUCTURE
     1  STE      1

