@<TRIPOS>MOLECULE
3uex_ligand_075
    55    54
SMALL
GAST_HUCK
****
This file was generated by PARSER (from files_GN.cpp)

@<TRIPOS>ATOM
      1 C1          0.9218   -2.9886   23.3772 C.2         1 STE       0.0348
      2 O1          0.6858   -2.6349   24.6565 O.co2       1 STE      -0.5690
      3 O2          2.2105   -3.1308   22.9922 O.co2       1 STE      -0.5690
      4 C2         -0.1374   -2.8610   22.3623 C.3         1 STE       0.0002
      5 C3         -0.2717   -1.4174   21.8026 C.3         1 STE      -0.0414
      6 C4         -0.8897   -0.3671   22.7782 C.3         1 STE      -0.0516
      7 C5         -0.1620    1.0104   22.7944 C.3         1 STE      -0.0530
      8 C6         -0.2837    1.8562   21.4939 C.3         1 STE      -0.0531
      9 C7         -1.6945    2.4398   21.1776 C.3         1 STE      -0.0531
     10 C8         -2.2234    3.5135   22.1646 C.3         1 STE      -0.0531
     11 C9         -1.4890    4.8932   22.0951 C.3         1 STE      -0.0531
     12 C10        -2.3394    6.0468   21.4913 C.3         1 STE      -0.0531
     13 C11        -3.4428    6.5627   22.4525 C.3         1 STE      -0.0531
     14 C12        -4.2715    7.7615   21.9244 C.3         1 STE      -0.0531
     15 C13        -5.2309    7.4260   20.7432 C.3         1 STE      -0.0531
     16 C14        -4.6770    7.8176   19.3456 C.3         1 STE      -0.0531
     17 C15        -5.5553    7.3527   18.1488 C.3         1 STE      -0.0531
     18 C16        -7.0186    7.8765   18.0748 C.3         1 STE      -0.0533
     19 C17        -7.2193    9.4006   18.3071 C.3         1 STE      -0.0559
     20 C18        -8.6847    9.8506   18.1006 C.3         1 STE      -0.0653
     21 H1         -1.0870   -3.1928   22.7898 H           1 STE       0.0430
     22 H2          0.1000   -3.5440   21.5405 H           1 STE       0.0430
     23 H3         -0.8851   -1.4590   20.8969 H           1 STE       0.0283
     24 H4          0.7206   -1.0912   21.4874 H           1 STE       0.0283
     25 H5         -0.8638   -0.7615   23.7961 H           1 STE       0.0266
     26 H6         -1.9446   -0.2172   22.5378 H           1 STE       0.0266
     27 H7          0.9023    0.8388   22.9921 H           1 STE       0.0265
     28 H8         -0.5451    1.5954   23.6372 H           1 STE       0.0265
     29 H9          0.0302    1.2453   20.6464 H           1 STE       0.0265
     30 H10         0.4206    2.6817   21.5588 H           1 STE       0.0265
     31 H11        -2.4148    1.6252   21.1314 H           1 STE       0.0265
     32 H12        -1.6699    2.8814   20.1766 H           1 STE       0.0265
     33 H13        -2.1541    3.1209   23.1839 H           1 STE       0.0265
     34 H14        -3.2913    3.6543   21.9596 H           1 STE       0.0265
     35 H15        -0.5801    4.8112   21.4933 H           1 STE       0.0265
     36 H16        -1.1707    5.1819   23.0980 H           1 STE       0.0265
     37 H17        -2.7878    5.6898   20.5615 H           1 STE       0.0265
     38 H18        -1.6762    6.8811   21.2402 H           1 STE       0.0265
     39 H19        -2.9683    6.8697   23.3874 H           1 STE       0.0265
     40 H20        -4.1275    5.7489   22.6892 H           1 STE       0.0265
     41 H21        -3.6042    8.5832   21.6591 H           1 STE       0.0265
     42 H22        -4.8782    8.1099   22.7641 H           1 STE       0.0265
     43 H23        -6.1670    7.9639   20.9024 H           1 STE       0.0265
     44 H24        -5.4709    6.3618   20.7495 H           1 STE       0.0265
     45 H25        -3.6895    7.3718   19.2103 H           1 STE       0.0265
     46 H26        -4.5449    8.9028   19.2899 H           1 STE       0.0265
     47 H27        -5.5924    6.2597   18.1558 H           1 STE       0.0265
     48 H28        -5.0447    7.6399   17.2275 H           1 STE       0.0265
     49 H29        -7.6280    7.3235   18.7948 H           1 STE       0.0265
     50 H30        -7.3965    7.6324   17.0760 H           1 STE       0.0265
     51 H31        -6.5807    9.9570   17.6188 H           1 STE       0.0263
     52 H32        -6.9221    9.6543   19.3250 H           1 STE       0.0263
     53 H33        -8.7843   10.9126   18.3245 H           1 STE       0.0230
     54 H34        -9.3584    9.2974   18.7592 H           1 STE       0.0230
     55 H35        -8.9866    9.6854   17.0653 H           1 STE       0.0230
@<TRIPOS>BOND
     1     1     2  ar
     2     1     3  ar
     3     1     4   1
     4     4     5   1
     5     5     6   1
     6     6     7   1
     7     7     8   1
     8     8     9   1
     9     9    10   1
    10    10    11   1
    11    11    12   1
    12    12    13   1
    13    13    14   1
    14    14    15   1
    15    15    16   1
    16    16    17   1
    17    17    18   1
    18    18    19   1
    19    19    20   1
    20     4    21   1
    21     4    22   1
    22     5    23   1
    23     5    24   1
    24     6    25   1
    25     6    26   1
    26     7    27   1
    27     7    28   1
    28     8    29   1
    29     8    30   1
    30     9    31   1
    31     9    32   1
    32    10    33   1
    33    10    34   1
    34    11    35   1
    35    11    36   1
    36    12    37   1
    37    12    38   1
    38    13    39   1
    39    13    40   1
    40    14    41   1
    41    14    42   1
    42    15    43   1
    43    15    44   1
    44    16    45   1
    45    16    46   1
    46    17    47   1
    47    17    48   1
    48    18    49   1
    49    18    50   1
    50    19    51   1
    51    19    52   1
    52    20    53   1
    53    20    54   1
    54    20    55   1
@<TRIPOS>SUBSTRUCTURE
     1  STE      1

