@<TRIPOS>MOLECULE
3uo4_ligand_083
    46    49
SMALL
GAST_HUCK
****
This file was generated by PARSER (from files_GN.cpp)

@<TRIPOS>ATOM
      1 N01         5.5821   29.9768    0.4916 N.ar        1 MOL      -0.2685
      2 N02         4.8328   32.1849    0.2866 N.ar        1 MOL      -0.2339
      3 N03         5.2690   33.5120   -1.5694 N.pl3       1 MOL      -0.2537
      4 N04         4.3547   30.8466    2.2291 N.pl3       1 MOL      -0.2427
      5 C05         6.1916   30.0394   -0.7156 C.ar        1 MOL       0.0015
      6 C06         4.9026   31.0295    1.0091 C.ar        1 MOL       0.1962
      7 C07         5.4194   32.3221   -0.9357 C.ar        1 MOL       0.1353
      8 C08         6.1331   31.2226   -1.4687 C.ar        1 MOL      -0.0013
      9 C09         5.7874   33.8270   -2.7944 C.ar        1 MOL       0.0745
     10 C10         7.0433   34.4698   -2.8326 C.ar        1 MOL      -0.0363
     11 C11         7.6609   34.7686   -4.0591 C.ar        1 MOL      -0.0708
     12 C12         7.0453   34.3917   -5.2632 C.ar        1 MOL      -0.0722
     13 C13         5.8064   33.7271   -5.2385 C.ar        1 MOL      -0.0625
     14 C14         5.1588   33.4383   -4.0111 C.ar        1 MOL       0.0075
     15 C15         3.9220   32.7350   -4.0192 C.ar        1 MOL      -0.0223
     16 C16         3.6487   31.7669    2.9262 C.ar        1 MOL       0.0684
     17 C17         4.2665   32.4800    3.9750 C.ar        1 MOL      -0.0343
     18 C18         3.5283   33.4081    4.7308 C.ar        1 MOL      -0.0571
     19 C19         2.1596   33.6133    4.4549 C.ar        1 MOL      -0.0016
     20 C20         1.5289   32.8651    3.4381 C.ar        1 MOL      -0.0571
     21 C21         2.2711   31.9416    2.6799 C.ar        1 MOL      -0.0343
     22 C22         1.4304   34.5559    5.1849 C.2         1 MOL       0.0553
     23 C23         3.8131   31.4732   -4.6516 C.ar        1 MOL      -0.0571
     24 C24         2.5964   30.7664   -4.6379 C.ar        1 MOL      -0.0632
     25 C25         1.4737   31.3107   -3.9900 C.ar        1 MOL      -0.0635
     26 C26         1.5695   32.5590   -3.3505 C.ar        1 MOL      -0.0632
     27 C27         2.7840   33.2686   -3.3688 C.ar        1 MOL      -0.0571
     28 O28         0.7980   34.1897    6.3203 O.co2       1 MOL      -0.5638
     29 O29         1.2688   35.8033    4.6933 O.co2       1 MOL      -0.5638
     30 H1          4.7471   34.1950   -1.1196 H           1 MOL       0.2176
     31 H2          4.5102   29.9920    2.6596 H           1 MOL       0.2187
     32 H3          6.6918   29.2223   -1.0677 H           1 MOL       0.0849
     33 H4          6.5940   31.2732   -2.3809 H           1 MOL       0.0586
     34 H5          7.5288   34.7042   -1.9638 H           1 MOL       0.0537
     35 H6          8.5699   35.2388   -4.0755 H           1 MOL       0.0591
     36 H7          7.5070   34.5871   -6.1555 H           1 MOL       0.0524
     37 H8          5.3834   33.4507   -6.1296 H           1 MOL       0.0594
     38 H9          5.2564   32.3361    4.1903 H           1 MOL       0.0545
     39 H10         3.9941   33.9302    5.4791 H           1 MOL       0.0622
     40 H11         0.5297   32.9818    3.2442 H           1 MOL       0.0622
     41 H12         1.8005   31.3923    1.9556 H           1 MOL       0.0545
     42 H13         4.6245   31.0503   -5.1115 H           1 MOL       0.0606
     43 H14         2.5291   29.8545   -5.0954 H           1 MOL       0.0613
     44 H15         0.5894   30.7970   -3.9797 H           1 MOL       0.0603
     45 H16         0.7556   32.9524   -2.8732 H           1 MOL       0.0613
     46 H17         2.8299   34.1802   -2.9042 H           1 MOL       0.0606
@<TRIPOS>BOND
     1     1     5  ar
     2     1     6  ar
     3     6     2  ar
     4     2     7  ar
     5     7     3   1
     6     3     9   1
     7     6     4   1
     8     4    16   1
     9     5     8  ar
    10     7     8  ar
    11     9    10  ar
    12     9    14  ar
    13    10    11  ar
    14    11    12  ar
    15    12    13  ar
    16    13    14  ar
    17    14    15   1
    18    15    23  ar
    19    15    27  ar
    20    16    17  ar
    21    16    21  ar
    22    17    18  ar
    23    18    19  ar
    24    19    20  ar
    25    19    22   1
    26    20    21  ar
    27    22    28  ar
    28    22    29  ar
    29    23    24  ar
    30    24    25  ar
    31    25    26  ar
    32    26    27  ar
    33     3    30   1
    34     4    31   1
    35     5    32   1
    36     8    33   1
    37    10    34   1
    38    11    35   1
    39    12    36   1
    40    13    37   1
    41    17    38   1
    42    18    39   1
    43    20    40   1
    44    21    41   1
    45    23    42   1
    46    24    43   1
    47    25    44   1
    48    26    45   1
    49    27    46   1
@<TRIPOS>SUBSTRUCTURE
     1  MOL      5

