@<TRIPOS>MOLECULE
3uo4_ligand_047
    46    49
SMALL
GAST_HUCK
****
This file was generated by PARSER (from files_GN.cpp)

@<TRIPOS>ATOM
      1 N01         4.9854   31.4886    2.0826 N.ar        1 MOL      -0.2685
      2 N02         5.5546   32.3848   -0.0049 N.ar        1 MOL      -0.2339
      3 N03         7.4386   31.5186   -1.2081 N.pl3       1 MOL      -0.2537
      4 N04         3.7170   33.2703    1.1398 N.pl3       1 MOL      -0.2427
      5 C05         6.0393   30.6331    2.0397 C.ar        1 MOL       0.0015
      6 C06         4.7252   32.3666    1.0735 C.ar        1 MOL       0.1962
      7 C07         6.6270   31.5509   -0.1230 C.ar        1 MOL       0.1353
      8 C08         6.8937   30.6413    0.9206 C.ar        1 MOL      -0.0013
      9 C09         7.3650   32.2410   -2.3704 C.ar        1 MOL       0.0745
     10 C10         6.9490   33.5958   -2.3867 C.ar        1 MOL      -0.0363
     11 C11         6.8519   34.3063   -3.5987 C.ar        1 MOL      -0.0708
     12 C12         7.1901   33.6830   -4.8097 C.ar        1 MOL      -0.0722
     13 C13         7.6446   32.3555   -4.8111 C.ar        1 MOL      -0.0625
     14 C14         7.7514   31.6286   -3.5979 C.ar        1 MOL       0.0075
     15 C15         8.2791   30.3130   -3.6584 C.ar        1 MOL      -0.0223
     16 C16         2.7939   33.4338    2.1326 C.ar        1 MOL       0.0684
     17 C17         2.3522   32.3767    2.9609 C.ar        1 MOL      -0.0343
     18 C18         1.4567   32.6143    4.0191 C.ar        1 MOL      -0.0571
     19 C19         0.9346   33.9139    4.2441 C.ar        1 MOL      -0.0016
     20 C20         1.3250   34.9596    3.3734 C.ar        1 MOL      -0.0571
     21 C21         2.2462   34.7154    2.3346 C.ar        1 MOL      -0.0343
     22 C22         0.0430   34.1415    5.3146 C.2         1 MOL       0.0553
     23 C23         9.6119   30.0612   -3.2529 C.ar        1 MOL      -0.0571
     24 C24        10.1561   28.7681   -3.3483 C.ar        1 MOL      -0.0632
     25 C25         9.3750   27.7096   -3.8497 C.ar        1 MOL      -0.0635
     26 C26         8.0492   27.9484   -4.2580 C.ar        1 MOL      -0.0632
     27 C27         7.5047   29.2436   -4.1677 C.ar        1 MOL      -0.0571
     28 O28         0.0254   33.3094    6.3940 O.co2       1 MOL      -0.5638
     29 O29        -0.8232   35.1891    5.3306 O.co2       1 MOL      -0.5638
     30 H1          8.1133   30.8194   -1.1945 H           1 MOL       0.2176
     31 H2          3.7056   33.9365    0.4202 H           1 MOL       0.2187
     32 H3          6.2049   29.9906    2.8131 H           1 MOL       0.0849
     33 H4          7.6868   29.9935    0.8715 H           1 MOL       0.0586
     34 H5          6.7337   34.0852   -1.5121 H           1 MOL       0.0537
     35 H6          6.5479   35.2823   -3.5907 H           1 MOL       0.0591
     36 H7          7.1301   34.2055   -5.6826 H           1 MOL       0.0524
     37 H8          7.9201   31.9258   -5.6995 H           1 MOL       0.0594
     38 H9          2.6648   31.4162    2.8042 H           1 MOL       0.0545
     39 H10         1.1902   31.8364    4.6203 H           1 MOL       0.0622
     40 H11         0.9669   35.9076    3.5074 H           1 MOL       0.0622
     41 H12         2.5450   35.4965    1.7479 H           1 MOL       0.0545
     42 H13        10.1973   30.8228   -2.8955 H           1 MOL       0.0606
     43 H14        11.1215   28.5974   -3.0604 H           1 MOL       0.0613
     44 H15         9.7717   26.7706   -3.9205 H           1 MOL       0.0603
     45 H16         7.4849   27.1814   -4.6268 H           1 MOL       0.0613
     46 H17         6.5406   29.3991   -4.4755 H           1 MOL       0.0606
@<TRIPOS>BOND
     1     1     5  ar
     2     1     6  ar
     3     6     2  ar
     4     2     7  ar
     5     7     3   1
     6     3     9   1
     7     6     4   1
     8     4    16   1
     9     5     8  ar
    10     7     8  ar
    11     9    10  ar
    12     9    14  ar
    13    10    11  ar
    14    11    12  ar
    15    12    13  ar
    16    13    14  ar
    17    14    15   1
    18    15    23  ar
    19    15    27  ar
    20    16    17  ar
    21    16    21  ar
    22    17    18  ar
    23    18    19  ar
    24    19    20  ar
    25    19    22   1
    26    20    21  ar
    27    22    28  ar
    28    22    29  ar
    29    23    24  ar
    30    24    25  ar
    31    25    26  ar
    32    26    27  ar
    33     3    30   1
    34     4    31   1
    35     5    32   1
    36     8    33   1
    37    10    34   1
    38    11    35   1
    39    12    36   1
    40    13    37   1
    41    17    38   1
    42    18    39   1
    43    20    40   1
    44    21    41   1
    45    23    42   1
    46    24    43   1
    47    25    44   1
    48    26    45   1
    49    27    46   1
@<TRIPOS>SUBSTRUCTURE
     1  MOL      5

