@<TRIPOS>MOLECULE
3uo4_ligand_001
    46    49
SMALL
GAST_HUCK
****
This file was generated by PARSER (from files_GN.cpp)

@<TRIPOS>ATOM
      1 N01         3.7893   32.0798    8.8340 N.ar        1 MOL      -0.2685
      2 N02         4.2340   30.9516    6.8454 N.ar        1 MOL      -0.2339
      3 N03         5.6107   29.1207    6.6830 N.pl3       1 MOL      -0.2537
      4 N04         2.8302   32.8990    6.9032 N.pl3       1 MOL      -0.2427
      5 C05         4.5584   31.2148    9.5381 C.ar        1 MOL       0.0015
      6 C06         3.6010   31.9610    7.4957 C.ar        1 MOL       0.1962
      7 C07         5.0261   30.0480    7.4770 C.ar        1 MOL       0.1353
      8 C08         5.2007   30.1557    8.8759 C.ar        1 MOL      -0.0013
      9 C09         6.4823   28.1614    7.0816 C.ar        1 MOL       0.0745
     10 C10         5.9656   27.0037    7.6938 C.ar        1 MOL      -0.0363
     11 C11         6.8309   25.9908    8.1404 C.ar        1 MOL      -0.0708
     12 C12         8.2208   26.1237    7.9713 C.ar        1 MOL      -0.0722
     13 C13         8.7454   27.2808    7.3639 C.ar        1 MOL      -0.0625
     14 C14         7.8819   28.3033    6.8992 C.ar        1 MOL       0.0075
     15 C15         8.4404   29.4673    6.3129 C.ar        1 MOL      -0.0223
     16 C16         2.4511   33.0523    5.5977 C.ar        1 MOL       0.0684
     17 C17         2.4476   32.0372    4.6110 C.ar        1 MOL      -0.0343
     18 C18         2.0855   32.3270    3.2796 C.ar        1 MOL      -0.0571
     19 C19         1.6738   33.6287    2.9180 C.ar        1 MOL      -0.0016
     20 C20         1.5993   34.6233    3.9142 C.ar        1 MOL      -0.0571
     21 C21         1.9894   34.3371    5.2346 C.ar        1 MOL      -0.0343
     22 C22         1.3241   33.9471    1.5965 C.2         1 MOL       0.0553
     23 C23         9.2015   30.3643    7.0979 C.ar        1 MOL      -0.0571
     24 C24         9.7517   31.5273    6.5284 C.ar        1 MOL      -0.0632
     25 C25         9.5340   31.8114    5.1695 C.ar        1 MOL      -0.0635
     26 C26         8.7788   30.9275    4.3787 C.ar        1 MOL      -0.0632
     27 C27         8.2327   29.7613    4.9456 C.ar        1 MOL      -0.0571
     28 O28         2.2168   33.7719    0.5984 O.co2       1 MOL      -0.5638
     29 O29         0.0136   34.0238    1.2763 O.co2       1 MOL      -0.5638
     30 H1          5.4532   29.1986    5.7268 H           1 MOL       0.2176
     31 H2          2.5695   33.6273    7.4921 H           1 MOL       0.2187
     32 H3          4.6766   31.3511   10.5445 H           1 MOL       0.0849
     33 H4          5.7845   29.5060    9.4059 H           1 MOL       0.0586
     34 H5          4.9571   26.8952    7.8271 H           1 MOL       0.0537
     35 H6          6.4483   25.1629    8.6031 H           1 MOL       0.0591
     36 H7          8.8482   25.3888    8.2990 H           1 MOL       0.0524
     37 H8          9.7655   27.3700    7.2662 H           1 MOL       0.0594
     38 H9          2.6861   31.0742    4.8476 H           1 MOL       0.0545
     39 H10         2.1054   31.5751    2.5849 H           1 MOL       0.0622
     40 H11         1.2850   35.5707    3.6858 H           1 MOL       0.0622
     41 H12         1.9452   35.0830    5.9274 H           1 MOL       0.0545
     42 H13         9.3443   30.1808    8.0926 H           1 MOL       0.0606
     43 H14        10.3011   32.1691    7.1062 H           1 MOL       0.0613
     44 H15         9.9343   32.6582    4.7554 H           1 MOL       0.0603
     45 H16         8.6351   31.1255    3.3856 H           1 MOL       0.0613
     46 H17         7.6888   29.1258    4.3549 H           1 MOL       0.0606
@<TRIPOS>BOND
     1     1     5  ar
     2     1     6  ar
     3     6     2  ar
     4     2     7  ar
     5     7     3   1
     6     3     9   1
     7     6     4   1
     8     4    16   1
     9     5     8  ar
    10     7     8  ar
    11     9    10  ar
    12     9    14  ar
    13    10    11  ar
    14    11    12  ar
    15    12    13  ar
    16    13    14  ar
    17    14    15   1
    18    15    23  ar
    19    15    27  ar
    20    16    17  ar
    21    16    21  ar
    22    17    18  ar
    23    18    19  ar
    24    19    20  ar
    25    19    22   1
    26    20    21  ar
    27    22    28  ar
    28    22    29  ar
    29    23    24  ar
    30    24    25  ar
    31    25    26  ar
    32    26    27  ar
    33     3    30   1
    34     4    31   1
    35     5    32   1
    36     8    33   1
    37    10    34   1
    38    11    35   1
    39    12    36   1
    40    13    37   1
    41    17    38   1
    42    18    39   1
    43    20    40   1
    44    21    41   1
    45    23    42   1
    46    24    43   1
    47    25    44   1
    48    26    45   1
    49    27    46   1
@<TRIPOS>SUBSTRUCTURE
     1  MOL      5

