@<TRIPOS>MOLECULE
3uo4_ligand_024
    46    49
SMALL
GAST_HUCK
****
This file was generated by PARSER (from files_GN.cpp)

@<TRIPOS>ATOM
      1 N01         1.1477   29.0982   -1.3452 N.ar        1 MOL      -0.2685
      2 N02        -1.1584   28.7143   -1.3412 N.ar        1 MOL      -0.2339
      3 N03        -2.1405   26.8639   -2.3514 N.pl3       1 MOL      -0.2537
      4 N04        -0.3219   30.6534   -0.3190 N.pl3       1 MOL      -0.2427
      5 C05         1.3766   27.9224   -1.9717 C.ar        1 MOL       0.0015
      6 C06        -0.1011   29.5045   -0.9999 C.ar        1 MOL       0.1962
      7 C07        -1.0101   27.5345   -2.0126 C.ar        1 MOL       0.1353
      8 C08         0.2995   27.0947   -2.3187 C.ar        1 MOL      -0.0013
      9 C09        -2.2296   25.7196   -3.1069 C.ar        1 MOL       0.0745
     10 C10        -2.8817   24.6104   -2.5232 C.ar        1 MOL      -0.0363
     11 C11        -2.9448   23.3752   -3.1901 C.ar        1 MOL      -0.0708
     12 C12        -2.3649   23.2359   -4.4603 C.ar        1 MOL      -0.0722
     13 C13        -1.7413   24.3387   -5.0712 C.ar        1 MOL      -0.0625
     14 C14        -1.6806   25.5978   -4.4196 C.ar        1 MOL       0.0075
     15 C15        -1.1254   26.7109   -5.1140 C.ar        1 MOL      -0.0223
     16 C16         0.6258   31.5815    0.0085 C.ar        1 MOL       0.0684
     17 C17         0.6478   32.1475    1.3011 C.ar        1 MOL      -0.0343
     18 C18         1.6380   33.0723    1.6644 C.ar        1 MOL      -0.0571
     19 C19         2.6316   33.4435    0.7309 C.ar        1 MOL      -0.0016
     20 C20         2.5779   32.9286   -0.5807 C.ar        1 MOL      -0.0571
     21 C21         1.5849   32.0129   -0.9340 C.ar        1 MOL      -0.0343
     22 C22         3.6848   34.3069    1.1264 C.2         1 MOL       0.0553
     23 C23        -1.9157   27.8577   -5.3746 C.ar        1 MOL      -0.0571
     24 C24        -1.3685   28.9672   -6.0414 C.ar        1 MOL      -0.0632
     25 C25        -0.0255   28.9483   -6.4553 C.ar        1 MOL      -0.0635
     26 C26         0.7646   27.8063   -6.2166 C.ar        1 MOL      -0.0632
     27 C27         0.2170   26.6880   -5.5629 C.ar        1 MOL      -0.0571
     28 O28         3.4339   35.4101    1.8901 O.co2       1 MOL      -0.5638
     29 O29         4.9765   34.1127    0.7288 O.co2       1 MOL      -0.5638
     30 H1         -2.9694   27.1993   -1.9749 H           1 MOL       0.2176
     31 H2         -1.2024   30.7623    0.0821 H           1 MOL       0.2187
     32 H3          2.3372   27.6428   -2.1856 H           1 MOL       0.0849
     33 H4          0.4753   26.1941   -2.7642 H           1 MOL       0.0586
     34 H5         -3.2884   24.6893   -1.5832 H           1 MOL       0.0537
     35 H6         -3.3850   22.5807   -2.7427 H           1 MOL       0.0591
     36 H7         -2.3926   22.3305   -4.9379 H           1 MOL       0.0524
     37 H8         -1.3437   24.2212   -6.0113 H           1 MOL       0.0594
     38 H9         -0.0424   31.8542    2.0003 H           1 MOL       0.0545
     39 H10         1.6400   33.4281    2.6222 H           1 MOL       0.0622
     40 H11         3.2672   33.2170   -1.2812 H           1 MOL       0.0622
     41 H12         1.5674   31.6655   -1.9005 H           1 MOL       0.0545
     42 H13        -2.8903   27.8885   -5.0767 H           1 MOL       0.0606
     43 H14        -1.9440   29.7975   -6.2050 H           1 MOL       0.0613
     44 H15         0.3762   29.7690   -6.9151 H           1 MOL       0.0603
     45 H16         1.7477   27.8041   -6.5126 H           1 MOL       0.0613
     46 H17         0.8088   25.8762   -5.4037 H           1 MOL       0.0606
@<TRIPOS>BOND
     1     1     5  ar
     2     1     6  ar
     3     6     2  ar
     4     2     7  ar
     5     7     3   1
     6     3     9   1
     7     6     4   1
     8     4    16   1
     9     5     8  ar
    10     7     8  ar
    11     9    10  ar
    12     9    14  ar
    13    10    11  ar
    14    11    12  ar
    15    12    13  ar
    16    13    14  ar
    17    14    15   1
    18    15    23  ar
    19    15    27  ar
    20    16    17  ar
    21    16    21  ar
    22    17    18  ar
    23    18    19  ar
    24    19    20  ar
    25    19    22   1
    26    20    21  ar
    27    22    28  ar
    28    22    29  ar
    29    23    24  ar
    30    24    25  ar
    31    25    26  ar
    32    26    27  ar
    33     3    30   1
    34     4    31   1
    35     5    32   1
    36     8    33   1
    37    10    34   1
    38    11    35   1
    39    12    36   1
    40    13    37   1
    41    17    38   1
    42    18    39   1
    43    20    40   1
    44    21    41   1
    45    23    42   1
    46    24    43   1
    47    25    44   1
    48    26    45   1
    49    27    46   1
@<TRIPOS>SUBSTRUCTURE
     1  MOL      5

