@<TRIPOS>MOLECULE
3uo4_ligand_053
    46    49
SMALL
GAST_HUCK
****
This file was generated by PARSER (from files_GN.cpp)

@<TRIPOS>ATOM
      1 N01         3.9343   29.9132    3.7928 N.ar        1 MOL      -0.2685
      2 N02         6.1334   30.6551    3.4813 N.ar        1 MOL      -0.2339
      3 N03         7.8542   29.2940    2.7336 N.pl3       1 MOL      -0.2537
      4 N04         4.5214   32.1802    4.2134 N.pl3       1 MOL      -0.2427
      5 C05         4.2708   28.6545    3.4282 C.ar        1 MOL       0.0015
      6 C06         4.8468   30.9253    3.8288 C.ar        1 MOL       0.1962
      7 C07         6.5512   29.4175    3.0979 C.ar        1 MOL       0.1353
      8 C08         5.5977   28.3693    3.0729 C.ar        1 MOL      -0.0013
      9 C09         8.4513   28.1448    2.3006 C.ar        1 MOL       0.0745
     10 C10         8.6615   27.0923    3.2206 C.ar        1 MOL      -0.0363
     11 C11         9.2020   25.8669    2.7948 C.ar        1 MOL      -0.0708
     12 C12         9.5418   25.6812    1.4446 C.ar        1 MOL      -0.0722
     13 C13         9.3679   26.7314    0.5269 C.ar        1 MOL      -0.0625
     14 C14         8.8350   27.9753    0.9420 C.ar        1 MOL       0.0075
     15 C15         8.6661   29.0025   -0.0217 C.ar        1 MOL      -0.0223
     16 C16         3.2591   32.5695    4.5291 C.ar        1 MOL       0.0684
     17 C17         2.9674   32.9622    5.8488 C.ar        1 MOL      -0.0343
     18 C18         1.6503   33.3055    6.2102 C.ar        1 MOL      -0.0571
     19 C19         0.6199   33.3176    5.2430 C.ar        1 MOL      -0.0016
     20 C20         0.9206   32.9435    3.9145 C.ar        1 MOL      -0.0571
     21 C21         2.2288   32.5599    3.5635 C.ar        1 MOL      -0.0343
     22 C22        -0.6830   33.6971    5.6075 C.2         1 MOL       0.0553
     23 C23         9.4300   30.1909    0.0528 C.ar        1 MOL      -0.0571
     24 C24         9.2737   31.1999   -0.9158 C.ar        1 MOL      -0.0632
     25 C25         8.3523   31.0345   -1.9659 C.ar        1 MOL      -0.0635
     26 C26         7.5913   29.8548   -2.0520 C.ar        1 MOL      -0.0632
     27 C27         7.7499   28.8422   -1.0882 C.ar        1 MOL      -0.0571
     28 O28        -1.5142   32.8128    6.1998 O.co2       1 MOL      -0.5638
     29 O29        -1.1341   34.9440    5.3519 O.co2       1 MOL      -0.5638
     30 H1          8.3781   30.1085    2.6792 H           1 MOL       0.2176
     31 H2          5.2374   32.8236    4.3387 H           1 MOL       0.2187
     32 H3          3.5595   27.9206    3.4116 H           1 MOL       0.0849
     33 H4          5.8467   27.4226    2.7887 H           1 MOL       0.0586
     34 H5          8.4145   27.2127    4.2064 H           1 MOL       0.0537
     35 H6          9.3470   25.1122    3.4674 H           1 MOL       0.0591
     36 H7          9.9201   24.7845    1.1294 H           1 MOL       0.0524
     37 H8          9.6389   26.5797   -0.4487 H           1 MOL       0.0594
     38 H9          3.7076   32.9669    6.5552 H           1 MOL       0.0545
     39 H10         1.4527   33.5534    7.1826 H           1 MOL       0.0622
     40 H11         0.1913   32.9299    3.1974 H           1 MOL       0.0622
     41 H12         2.4327   32.2788    2.6011 H           1 MOL       0.0545
     42 H13        10.1152   30.3236    0.8026 H           1 MOL       0.0606
     43 H14         9.8316   32.0544   -0.8556 H           1 MOL       0.0613
     44 H15         8.2359   31.7698   -2.6662 H           1 MOL       0.0603
     45 H16         6.9203   29.7328   -2.8141 H           1 MOL       0.0613
     46 H17         7.1865   27.9909   -1.1666 H           1 MOL       0.0606
@<TRIPOS>BOND
     1     1     5  ar
     2     1     6  ar
     3     6     2  ar
     4     2     7  ar
     5     7     3   1
     6     3     9   1
     7     6     4   1
     8     4    16   1
     9     5     8  ar
    10     7     8  ar
    11     9    10  ar
    12     9    14  ar
    13    10    11  ar
    14    11    12  ar
    15    12    13  ar
    16    13    14  ar
    17    14    15   1
    18    15    23  ar
    19    15    27  ar
    20    16    17  ar
    21    16    21  ar
    22    17    18  ar
    23    18    19  ar
    24    19    20  ar
    25    19    22   1
    26    20    21  ar
    27    22    28  ar
    28    22    29  ar
    29    23    24  ar
    30    24    25  ar
    31    25    26  ar
    32    26    27  ar
    33     3    30   1
    34     4    31   1
    35     5    32   1
    36     8    33   1
    37    10    34   1
    38    11    35   1
    39    12    36   1
    40    13    37   1
    41    17    38   1
    42    18    39   1
    43    20    40   1
    44    21    41   1
    45    23    42   1
    46    24    43   1
    47    25    44   1
    48    26    45   1
    49    27    46   1
@<TRIPOS>SUBSTRUCTURE
     1  MOL      5

