@<TRIPOS>MOLECULE
3uo4_ligand_035
    46    49
SMALL
GAST_HUCK
****
This file was generated by PARSER (from files_GN.cpp)

@<TRIPOS>ATOM
      1 N01         5.2431   33.9908   -0.9117 N.ar        1 MOL      -0.2685
      2 N02         4.8607   32.5085    0.8556 N.ar        1 MOL      -0.2339
      3 N03         6.3254   30.6792    1.2700 N.pl3       1 MOL      -0.2537
      4 N04         3.4086   34.3599    0.4850 N.pl3       1 MOL      -0.2427
      5 C05         6.3587   33.3040   -1.2778 C.ar        1 MOL       0.0015
      6 C06         4.4815   33.6034    0.1482 C.ar        1 MOL       0.1962
      7 C07         5.9740   31.7796    0.5609 C.ar        1 MOL       0.1353
      8 C08         6.7578   32.1730   -0.5431 C.ar        1 MOL      -0.0013
      9 C09         5.6664   30.0918    2.3265 C.ar        1 MOL       0.0745
     10 C10         4.9926   30.8575    3.3141 C.ar        1 MOL      -0.0363
     11 C11         4.3296   30.2421    4.3869 C.ar        1 MOL      -0.0708
     12 C12         4.3614   28.8449    4.5200 C.ar        1 MOL      -0.0722
     13 C13         5.0569   28.0693    3.5775 C.ar        1 MOL      -0.0625
     14 C14         5.7217   28.6754    2.4797 C.ar        1 MOL       0.0075
     15 C15         6.4239   27.8310    1.5701 C.ar        1 MOL      -0.0223
     16 C16         2.5822   34.2040    1.5698 C.ar        1 MOL       0.0684
     17 C17         2.3822   35.3200    2.4046 C.ar        1 MOL      -0.0343
     18 C18         1.5515   35.2381    3.5407 C.ar        1 MOL      -0.0571
     19 C19         0.9103   34.0274    3.8731 C.ar        1 MOL      -0.0016
     20 C20         1.0808   32.9174    3.0167 C.ar        1 MOL      -0.0571
     21 C21         1.8946   33.0082    1.8680 C.ar        1 MOL      -0.0343
     22 C22         0.0796   33.9353    5.0245 C.2         1 MOL       0.0553
     23 C23         6.0964   27.8093    0.1922 C.ar        1 MOL      -0.0571
     24 C24         6.8096   26.9888   -0.7028 C.ar        1 MOL      -0.0632
     25 C25         7.8509   26.1676   -0.2296 C.ar        1 MOL      -0.0635
     26 C26         8.1792   26.1719    1.1361 C.ar        1 MOL      -0.0632
     27 C27         7.4732   26.9977    2.0297 C.ar        1 MOL      -0.0571
     28 O28        -0.8419   34.8884    5.3165 O.co2       1 MOL      -0.5638
     29 O29         0.1971   32.9055    5.8999 O.co2       1 MOL      -0.5638
     30 H1          7.0785   30.1840    0.9187 H           1 MOL       0.2176
     31 H2          3.3017   35.1782   -0.0220 H           1 MOL       0.2187
     32 H3          6.9084   33.6222   -2.0783 H           1 MOL       0.0849
     33 H4          7.5983   31.6508   -0.8122 H           1 MOL       0.0586
     34 H5          4.9983   31.8792    3.2833 H           1 MOL       0.0537
     35 H6          3.8365   30.8103    5.0826 H           1 MOL       0.0591
     36 H7          3.8952   28.3989    5.3095 H           1 MOL       0.0524
     37 H8          5.0650   27.0543    3.6945 H           1 MOL       0.0594
     38 H9          2.8664   36.1997    2.2120 H           1 MOL       0.0545
     39 H10         1.4530   36.0678    4.1349 H           1 MOL       0.0622
     40 H11         0.5989   32.0378    3.2065 H           1 MOL       0.0622
     41 H12         1.9581   32.2011    1.2453 H           1 MOL       0.0545
     42 H13         5.3350   28.3872   -0.1703 H           1 MOL       0.0606
     43 H14         6.5696   26.9852   -1.6965 H           1 MOL       0.0613
     44 H15         8.3629   25.5668   -0.8775 H           1 MOL       0.0603
     45 H16         8.9354   25.5724    1.4815 H           1 MOL       0.0613
     46 H17         7.7401   26.9962    3.0176 H           1 MOL       0.0606
@<TRIPOS>BOND
     1     1     5  ar
     2     1     6  ar
     3     6     2  ar
     4     2     7  ar
     5     7     3   1
     6     3     9   1
     7     6     4   1
     8     4    16   1
     9     5     8  ar
    10     7     8  ar
    11     9    10  ar
    12     9    14  ar
    13    10    11  ar
    14    11    12  ar
    15    12    13  ar
    16    13    14  ar
    17    14    15   1
    18    15    23  ar
    19    15    27  ar
    20    16    17  ar
    21    16    21  ar
    22    17    18  ar
    23    18    19  ar
    24    19    20  ar
    25    19    22   1
    26    20    21  ar
    27    22    28  ar
    28    22    29  ar
    29    23    24  ar
    30    24    25  ar
    31    25    26  ar
    32    26    27  ar
    33     3    30   1
    34     4    31   1
    35     5    32   1
    36     8    33   1
    37    10    34   1
    38    11    35   1
    39    12    36   1
    40    13    37   1
    41    17    38   1
    42    18    39   1
    43    20    40   1
    44    21    41   1
    45    23    42   1
    46    24    43   1
    47    25    44   1
    48    26    45   1
    49    27    46   1
@<TRIPOS>SUBSTRUCTURE
     1  MOL      5

