@<TRIPOS>MOLECULE
3uo4_ligand_009
    46    49
SMALL
GAST_HUCK
****
This file was generated by PARSER (from files_GN.cpp)

@<TRIPOS>ATOM
      1 N01         6.4666   26.6612    3.0580 N.ar        1 MOL      -0.2685
      2 N02         5.9260   27.7377    5.0506 N.ar        1 MOL      -0.2339
      3 N03         4.0793   29.2771    5.1507 N.pl3       1 MOL      -0.2537
      4 N04         7.7870   26.2448    4.9309 N.pl3       1 MOL      -0.2427
      5 C05         5.4014   27.2284    2.4409 C.ar        1 MOL       0.0015
      6 C06         6.7300   26.8819    4.3720 C.ar        1 MOL       0.1962
      7 C07         4.8590   28.3706    4.4973 C.ar        1 MOL       0.1353
      8 C08         4.5606   28.0985    3.1485 C.ar        1 MOL      -0.0013
      9 C09         4.2055   29.7767    6.4198 C.ar        1 MOL       0.0745
     10 C10         4.6485   28.9748    7.5032 C.ar        1 MOL      -0.0363
     11 C11         4.7223   29.4975    8.8066 C.ar        1 MOL      -0.0708
     12 C12         4.3422   30.8268    9.0564 C.ar        1 MOL      -0.0722
     13 C13         3.8876   31.6326    7.9982 C.ar        1 MOL      -0.0625
     14 C14         3.8031   31.1163    6.6844 C.ar        1 MOL       0.0075
     15 C15         3.3197   31.9817    5.6571 C.ar        1 MOL      -0.0223
     16 C16         8.0581   26.2487    6.2630 C.ar        1 MOL       0.0684
     17 C17         7.1507   25.6849    7.1800 C.ar        1 MOL      -0.0343
     18 C18         7.4192   25.7240    8.5540 C.ar        1 MOL      -0.0571
     19 C19         8.5911   26.3387    9.0457 C.ar        1 MOL      -0.0016
     20 C20         9.5272   26.8412    8.1147 C.ar        1 MOL      -0.0571
     21 C21         9.2772   26.7776    6.7302 C.ar        1 MOL      -0.0343
     22 C22         8.8123   26.4684   10.4412 C.2         1 MOL       0.0553
     23 C23         4.1707   32.4208    4.6183 C.ar        1 MOL      -0.0571
     24 C24         3.6885   33.2713    3.6128 C.ar        1 MOL      -0.0632
     25 C25         2.3461   33.6988    3.6219 C.ar        1 MOL      -0.0635
     26 C26         1.4903   33.2701    4.6540 C.ar        1 MOL      -0.0632
     27 C27         1.9755   32.4205    5.6672 C.ar        1 MOL      -0.0571
     28 O28         8.1671   25.6856   11.3310 O.co2       1 MOL      -0.5638
     29 O29         9.4799   27.5295   10.9472 O.co2       1 MOL      -0.5638
     30 H1          3.4008   29.6961    4.5998 H           1 MOL       0.2176
     31 H2          8.3788   25.7522    4.3435 H           1 MOL       0.2187
     32 H3          5.2284   27.0223    1.4563 H           1 MOL       0.0849
     33 H4          3.7634   28.5325    2.6850 H           1 MOL       0.0586
     34 H5          4.8724   27.9873    7.3774 H           1 MOL       0.0537
     35 H6          5.0335   28.8986    9.5715 H           1 MOL       0.0591
     36 H7          4.4088   31.2021   10.0044 H           1 MOL       0.0524
     37 H8          3.6245   32.6025    8.1964 H           1 MOL       0.0594
     38 H9          6.2771   25.2645    6.8433 H           1 MOL       0.0545
     39 H10         6.7256   25.3288    9.1978 H           1 MOL       0.0622
     40 H11        10.3931   27.2739    8.4292 H           1 MOL       0.0622
     41 H12         9.9628   27.1579    6.0756 H           1 MOL       0.0545
     42 H13         5.1522   32.1228    4.5873 H           1 MOL       0.0606
     43 H14         4.3108   33.5862    2.8649 H           1 MOL       0.0613
     44 H15         1.9983   34.3234    2.8898 H           1 MOL       0.0603
     45 H16         0.5148   33.5779    4.6603 H           1 MOL       0.0613
     46 H17         1.3343   32.1188    6.4060 H           1 MOL       0.0606
@<TRIPOS>BOND
     1     1     5  ar
     2     1     6  ar
     3     6     2  ar
     4     2     7  ar
     5     7     3   1
     6     3     9   1
     7     6     4   1
     8     4    16   1
     9     5     8  ar
    10     7     8  ar
    11     9    10  ar
    12     9    14  ar
    13    10    11  ar
    14    11    12  ar
    15    12    13  ar
    16    13    14  ar
    17    14    15   1
    18    15    23  ar
    19    15    27  ar
    20    16    17  ar
    21    16    21  ar
    22    17    18  ar
    23    18    19  ar
    24    19    20  ar
    25    19    22   1
    26    20    21  ar
    27    22    28  ar
    28    22    29  ar
    29    23    24  ar
    30    24    25  ar
    31    25    26  ar
    32    26    27  ar
    33     3    30   1
    34     4    31   1
    35     5    32   1
    36     8    33   1
    37    10    34   1
    38    11    35   1
    39    12    36   1
    40    13    37   1
    41    17    38   1
    42    18    39   1
    43    20    40   1
    44    21    41   1
    45    23    42   1
    46    24    43   1
    47    25    44   1
    48    26    45   1
    49    27    46   1
@<TRIPOS>SUBSTRUCTURE
     1  MOL      5

