@<TRIPOS>MOLECULE
3uo4_ligand_044
    46    49
SMALL
GAST_HUCK
****
This file was generated by PARSER (from files_GN.cpp)

@<TRIPOS>ATOM
      1 N01         4.9451   30.3028    4.1695 N.ar        1 MOL      -0.2685
      2 N02         6.4705   29.8477    5.8828 N.ar        1 MOL      -0.2339
      3 N03         8.2106   28.3377    5.6937 N.pl3       1 MOL      -0.2537
      4 N04         4.7612   31.3924    6.2772 N.pl3       1 MOL      -0.2427
      5 C05         5.5474   29.4058    3.3525 C.ar        1 MOL       0.0015
      6 C06         5.3873   30.5355    5.4376 C.ar        1 MOL       0.1962
      7 C07         7.1448   28.9446    5.1154 C.ar        1 MOL       0.1353
      8 C08         6.6625   28.6854    3.8075 C.ar        1 MOL      -0.0013
      9 C09         9.0630   27.4206    5.1378 C.ar        1 MOL       0.0745
     10 C10         9.6896   27.6723    3.8949 C.ar        1 MOL      -0.0363
     11 C11        10.5706   26.7369    3.3230 C.ar        1 MOL      -0.0708
     12 C12        10.8570   25.5389    3.9991 C.ar        1 MOL      -0.0722
     13 C13        10.2908   25.2985    5.2578 C.ar        1 MOL      -0.0625
     14 C14         9.4075   26.2350    5.8508 C.ar        1 MOL       0.0075
     15 C15         8.8849   25.9547    7.1438 C.ar        1 MOL      -0.0223
     16 C16         3.6972   32.1758    5.9473 C.ar        1 MOL       0.0684
     17 C17         3.7515   33.1088    4.8838 C.ar        1 MOL      -0.0343
     18 C18         2.6068   33.8235    4.4963 C.ar        1 MOL      -0.0571
     19 C19         1.3761   33.6413    5.1750 C.ar        1 MOL      -0.0016
     20 C20         1.3434   32.7563    6.2811 C.ar        1 MOL      -0.0571
     21 C21         2.4907   32.0396    6.6706 C.ar        1 MOL      -0.0343
     22 C22         0.2089   34.3048    4.7270 C.2         1 MOL       0.0553
     23 C23         9.7468   25.8906    8.2664 C.ar        1 MOL      -0.0571
     24 C24         9.2433   25.6138    9.5496 C.ar        1 MOL      -0.0632
     25 C25         7.8684   25.3847    9.7238 C.ar        1 MOL      -0.0635
     26 C26         6.9928   25.4602    8.6241 C.ar        1 MOL      -0.0632
     27 C27         7.4985   25.7381    7.3425 C.ar        1 MOL      -0.0571
     28 O28         0.0688   34.6832    3.4333 O.co2       1 MOL      -0.5638
     29 O29        -0.8136   34.6055    5.5620 O.co2       1 MOL      -0.5638
     30 H1          8.3288   28.5111    6.6452 H           1 MOL       0.2176
     31 H2          5.0342   31.3817    7.2132 H           1 MOL       0.2187
     32 H3          5.1765   29.2589    2.4145 H           1 MOL       0.0849
     33 H4          7.0960   27.9883    3.1992 H           1 MOL       0.0586
     34 H5          9.5147   28.5515    3.3942 H           1 MOL       0.0537
     35 H6         11.0143   26.9320    2.4237 H           1 MOL       0.0591
     36 H7         11.4876   24.8520    3.5800 H           1 MOL       0.0524
     37 H8         10.5270   24.4285    5.7469 H           1 MOL       0.0594
     38 H9          4.6276   33.2690    4.3766 H           1 MOL       0.0545
     39 H10         2.6797   34.4665    3.7055 H           1 MOL       0.0622
     40 H11         0.4732   32.5993    6.7964 H           1 MOL       0.0622
     41 H12         2.4293   31.3869    7.4563 H           1 MOL       0.0545
     42 H13        10.7450   26.0673    8.1585 H           1 MOL       0.0606
     43 H14         9.8759   25.5844   10.3513 H           1 MOL       0.0613
     44 H15         7.5069   25.1780   10.6553 H           1 MOL       0.0603
     45 H16         5.9914   25.2998    8.7544 H           1 MOL       0.0613
     46 H17         6.8500   25.7763    6.5521 H           1 MOL       0.0606
@<TRIPOS>BOND
     1     1     5  ar
     2     1     6  ar
     3     6     2  ar
     4     2     7  ar
     5     7     3   1
     6     3     9   1
     7     6     4   1
     8     4    16   1
     9     5     8  ar
    10     7     8  ar
    11     9    10  ar
    12     9    14  ar
    13    10    11  ar
    14    11    12  ar
    15    12    13  ar
    16    13    14  ar
    17    14    15   1
    18    15    23  ar
    19    15    27  ar
    20    16    17  ar
    21    16    21  ar
    22    17    18  ar
    23    18    19  ar
    24    19    20  ar
    25    19    22   1
    26    20    21  ar
    27    22    28  ar
    28    22    29  ar
    29    23    24  ar
    30    24    25  ar
    31    25    26  ar
    32    26    27  ar
    33     3    30   1
    34     4    31   1
    35     5    32   1
    36     8    33   1
    37    10    34   1
    38    11    35   1
    39    12    36   1
    40    13    37   1
    41    17    38   1
    42    18    39   1
    43    20    40   1
    44    21    41   1
    45    23    42   1
    46    24    43   1
    47    25    44   1
    48    26    45   1
    49    27    46   1
@<TRIPOS>SUBSTRUCTURE
     1  MOL      5

