@<TRIPOS>MOLECULE
3uo4_ligand_006
    46    49
SMALL
GAST_HUCK
****
This file was generated by PARSER (from files_GN.cpp)

@<TRIPOS>ATOM
      1 N01         2.7393   31.7130    4.4158 N.ar        1 MOL      -0.2685
      2 N02         3.8884   31.8595    6.4469 N.ar        1 MOL      -0.2339
      3 N03         5.2190   30.1518    7.2947 N.pl3       1 MOL      -0.2537
      4 N04         2.5944   33.6767    5.7660 N.pl3       1 MOL      -0.2427
      5 C05         3.2021   30.4580    4.2095 C.ar        1 MOL       0.0015
      6 C06         3.0695   32.4311    5.5248 C.ar        1 MOL       0.1962
      7 C07         4.3985   30.6030    6.3128 C.ar        1 MOL       0.1353
      8 C08         4.0374   29.8614    5.1642 C.ar        1 MOL      -0.0013
      9 C09         5.8000   28.9170    7.3332 C.ar        1 MOL       0.0745
     10 C10         5.0487   27.8342    7.8377 C.ar        1 MOL      -0.0363
     11 C11         5.5876   26.5371    7.8412 C.ar        1 MOL      -0.0708
     12 C12         6.8878   26.3152    7.3546 C.ar        1 MOL      -0.0722
     13 C13         7.6580   27.3930    6.8845 C.ar        1 MOL      -0.0625
     14 C14         7.1248   28.7016    6.8722 C.ar        1 MOL       0.0075
     15 C15         7.9298   29.7545    6.3855 C.ar        1 MOL      -0.0223
     16 C16         1.7569   34.3982    4.9711 C.ar        1 MOL       0.0684
     17 C17         0.6688   35.0596    5.5755 C.ar        1 MOL      -0.0343
     18 C18        -0.2638   35.7675    4.7931 C.ar        1 MOL      -0.0571
     19 C19        -0.0994   35.8786    3.3916 C.ar        1 MOL      -0.0016
     20 C20         1.0360   35.2748    2.8017 C.ar        1 MOL      -0.0571
     21 C21         1.9460   34.5374    3.5789 C.ar        1 MOL      -0.0343
     22 C22        -1.0807   36.5333    2.6047 C.2         1 MOL       0.0553
     23 C23         7.8538   30.1477    5.0317 C.ar        1 MOL      -0.0571
     24 C24         8.6745   31.1817    4.5491 C.ar        1 MOL      -0.0632
     25 C25         9.5695   31.8384    5.4137 C.ar        1 MOL      -0.0635
     26 C26         9.6547   31.4503    6.7628 C.ar        1 MOL      -0.0632
     27 C27         8.8381   30.4106    7.2451 C.ar        1 MOL      -0.0571
     28 O28        -2.3265   36.7445    3.0862 O.co2       1 MOL      -0.5638
     29 O29        -0.9056   36.7795    1.2859 O.co2       1 MOL      -0.5638
     30 H1          5.4079   30.7503    8.0357 H           1 MOL       0.2176
     31 H2          2.7674   34.0504    6.6443 H           1 MOL       0.2187
     32 H3          2.9260   29.9357    3.3744 H           1 MOL       0.0849
     33 H4          4.3601   28.9008    5.0251 H           1 MOL       0.0586
     34 H5          4.1040   27.9837    8.1887 H           1 MOL       0.0537
     35 H6          5.0307   25.7498    8.1775 H           1 MOL       0.0591
     36 H7          7.2785   25.3667    7.3448 H           1 MOL       0.0524
     37 H8          8.6031   27.2119    6.5330 H           1 MOL       0.0594
     38 H9          0.5218   34.9885    6.5887 H           1 MOL       0.0545
     39 H10        -1.0634   36.2042    5.2605 H           1 MOL       0.0622
     40 H11         1.1928   35.3351    1.7956 H           1 MOL       0.0622
     41 H12         2.7526   34.1030    3.1286 H           1 MOL       0.0545
     42 H13         7.2111   29.6763    4.3901 H           1 MOL       0.0606
     43 H14         8.6299   31.4485    3.5654 H           1 MOL       0.0613
     44 H15        10.1554   32.5981    5.0623 H           1 MOL       0.0603
     45 H16        10.3012   31.9314    7.3927 H           1 MOL       0.0613
     46 H17         8.8963   30.1422    8.2301 H           1 MOL       0.0606
@<TRIPOS>BOND
     1     1     5  ar
     2     1     6  ar
     3     6     2  ar
     4     2     7  ar
     5     7     3   1
     6     3     9   1
     7     6     4   1
     8     4    16   1
     9     5     8  ar
    10     7     8  ar
    11     9    10  ar
    12     9    14  ar
    13    10    11  ar
    14    11    12  ar
    15    12    13  ar
    16    13    14  ar
    17    14    15   1
    18    15    23  ar
    19    15    27  ar
    20    16    17  ar
    21    16    21  ar
    22    17    18  ar
    23    18    19  ar
    24    19    20  ar
    25    19    22   1
    26    20    21  ar
    27    22    28  ar
    28    22    29  ar
    29    23    24  ar
    30    24    25  ar
    31    25    26  ar
    32    26    27  ar
    33     3    30   1
    34     4    31   1
    35     5    32   1
    36     8    33   1
    37    10    34   1
    38    11    35   1
    39    12    36   1
    40    13    37   1
    41    17    38   1
    42    18    39   1
    43    20    40   1
    44    21    41   1
    45    23    42   1
    46    24    43   1
    47    25    44   1
    48    26    45   1
    49    27    46   1
@<TRIPOS>SUBSTRUCTURE
     1  MOL      5

