@<TRIPOS>MOLECULE
3uo4_ligand_015
    46    49
SMALL
GAST_HUCK
****
This file was generated by PARSER (from files_GN.cpp)

@<TRIPOS>ATOM
      1 N01         8.3968   30.5862    3.0778 N.ar        1 MOL      -0.2685
      2 N02         8.9133   28.3779    3.6408 N.ar        1 MOL      -0.2339
      3 N03         9.3621   26.7257    2.0873 N.pl3       1 MOL      -0.2537
      4 N04         8.3874   30.0111    5.3184 N.pl3       1 MOL      -0.2427
      5 C05         8.5248   30.3117    1.7581 C.ar        1 MOL       0.0015
      6 C06         8.5916   29.6434    4.0331 C.ar        1 MOL       0.1962
      7 C07         9.0460   28.0177    2.3370 C.ar        1 MOL       0.1353
      8 C08         8.8529   29.0083    1.3452 C.ar        1 MOL      -0.0013
      9 C09         9.5181   26.1665    0.8545 C.ar        1 MOL       0.0745
     10 C10         8.3787   25.8865    0.0679 C.ar        1 MOL      -0.0363
     11 C11         8.5192   25.3399   -1.2202 C.ar        1 MOL      -0.0708
     12 C12         9.7975   25.0608   -1.7282 C.ar        1 MOL      -0.0722
     13 C13        10.9395   25.3244   -0.9509 C.ar        1 MOL      -0.0625
     14 C14        10.8118   25.8718    0.3462 C.ar        1 MOL       0.0075
     15 C15        11.9754   26.1755    1.0846 C.ar        1 MOL      -0.0223
     16 C16         8.5044   29.2188    6.4235 C.ar        1 MOL       0.0684
     17 C17         7.4890   29.2804    7.3954 C.ar        1 MOL      -0.0343
     18 C18         7.5527   28.4839    8.5557 C.ar        1 MOL      -0.0571
     19 C19         8.6663   27.6418    8.7767 C.ar        1 MOL      -0.0016
     20 C20         9.7072   27.6106    7.8242 C.ar        1 MOL      -0.0571
     21 C21         9.6227   28.3896    6.6528 C.ar        1 MOL      -0.0343
     22 C22         8.7506   26.8647    9.9396 C.2         1 MOL       0.0553
     23 C23        12.6298   27.4175    0.9051 C.ar        1 MOL      -0.0571
     24 C24        13.7762   27.7282    1.6589 C.ar        1 MOL      -0.0632
     25 C25        14.2770   26.8050    2.5946 C.ar        1 MOL      -0.0635
     26 C26        13.6317   25.5684    2.7782 C.ar        1 MOL      -0.0632
     27 C27        12.4838   25.2525    2.0287 C.ar        1 MOL      -0.0571
     28 O28         9.3242   27.4096   11.0323 O.co2       1 MOL      -0.5638
     29 O29         7.8241   25.8998   10.1529 O.co2       1 MOL      -0.5638
     30 H1          9.5627   26.1609    2.8545 H           1 MOL       0.2176
     31 H2          8.0125   30.8960    5.4542 H           1 MOL       0.2187
     32 H3          8.3790   31.0488    1.0675 H           1 MOL       0.0849
     33 H4          8.9480   28.8036    0.3489 H           1 MOL       0.0586
     34 H5          7.4415   26.0899    0.4257 H           1 MOL       0.0537
     35 H6          7.6914   25.1518   -1.7914 H           1 MOL       0.0591
     36 H7          9.9000   24.6624   -2.6657 H           1 MOL       0.0524
     37 H8         11.8654   25.1173   -1.3384 H           1 MOL       0.0594
     38 H9          6.6759   29.8868    7.2561 H           1 MOL       0.0545
     39 H10         6.7951   28.5352    9.2397 H           1 MOL       0.0622
     40 H11        10.5255   27.0145    7.9700 H           1 MOL       0.0622
     41 H12        10.3961   28.3677    5.9832 H           1 MOL       0.0545
     42 H13        12.2754   28.1004    0.2299 H           1 MOL       0.0606
     43 H14        14.2471   28.6264    1.5262 H           1 MOL       0.0613
     44 H15        15.1139   27.0299    3.1379 H           1 MOL       0.0603
     45 H16        13.9965   24.9000    3.4595 H           1 MOL       0.0613
     46 H17        12.0225   24.3517    2.1743 H           1 MOL       0.0606
@<TRIPOS>BOND
     1     1     5  ar
     2     1     6  ar
     3     6     2  ar
     4     2     7  ar
     5     7     3   1
     6     3     9   1
     7     6     4   1
     8     4    16   1
     9     5     8  ar
    10     7     8  ar
    11     9    10  ar
    12     9    14  ar
    13    10    11  ar
    14    11    12  ar
    15    12    13  ar
    16    13    14  ar
    17    14    15   1
    18    15    23  ar
    19    15    27  ar
    20    16    17  ar
    21    16    21  ar
    22    17    18  ar
    23    18    19  ar
    24    19    20  ar
    25    19    22   1
    26    20    21  ar
    27    22    28  ar
    28    22    29  ar
    29    23    24  ar
    30    24    25  ar
    31    25    26  ar
    32    26    27  ar
    33     3    30   1
    34     4    31   1
    35     5    32   1
    36     8    33   1
    37    10    34   1
    38    11    35   1
    39    12    36   1
    40    13    37   1
    41    17    38   1
    42    18    39   1
    43    20    40   1
    44    21    41   1
    45    23    42   1
    46    24    43   1
    47    25    44   1
    48    26    45   1
    49    27    46   1
@<TRIPOS>SUBSTRUCTURE
     1  MOL      5

