@<TRIPOS>MOLECULE
3uo4_ligand_074
    46    49
SMALL
GAST_HUCK
****
This file was generated by PARSER (from files_GN.cpp)

@<TRIPOS>ATOM
      1 N01         5.3355   28.4839    1.1631 N.ar        1 MOL      -0.2685
      2 N02         4.5741   29.5353    3.0987 N.ar        1 MOL      -0.2339
      3 N03         4.9221   28.5878    5.2513 N.pl3       1 MOL      -0.2537
      4 N04         4.2367   30.5276    0.9516 N.pl3       1 MOL      -0.2427
      5 C05         5.8230   27.4468    1.8918 C.ar        1 MOL       0.0015
      6 C06         4.7183   29.5432    1.7472 C.ar        1 MOL       0.1962
      7 C07         5.0256   28.5329    3.8990 C.ar        1 MOL       0.1353
      8 C08         5.6896   27.4440    3.2946 C.ar        1 MOL      -0.0013
      9 C09         4.3839   29.5959    6.0141 C.ar        1 MOL       0.0745
     10 C10         3.1709   30.2178    5.6236 C.ar        1 MOL      -0.0363
     11 C11         2.5981   31.2386    6.4012 C.ar        1 MOL      -0.0708
     12 C12         3.2064   31.6232    7.6059 C.ar        1 MOL      -0.0722
     13 C13         4.3786   30.9793    8.0365 C.ar        1 MOL      -0.0625
     14 C14         4.9917   29.9622    7.2557 C.ar        1 MOL       0.0075
     15 C15         6.1972   29.3603    7.7411 C.ar        1 MOL      -0.0223
     16 C16         3.5519   31.6526    1.3247 C.ar        1 MOL       0.0684
     17 C17         3.9053   32.4704    2.4252 C.ar        1 MOL      -0.0343
     18 C18         3.1069   33.5698    2.7933 C.ar        1 MOL      -0.0571
     19 C19         1.9391   33.9119    2.0652 C.ar        1 MOL      -0.0016
     20 C20         1.6254   33.1263    0.9255 C.ar        1 MOL      -0.0571
     21 C21         2.4186   32.0231    0.5581 C.ar        1 MOL      -0.0343
     22 C22         1.1150   34.9978    2.4680 C.2         1 MOL       0.0553
     23 C23         7.3574   29.2764    6.9230 C.ar        1 MOL      -0.0571
     24 C24         8.5178   28.6235    7.3829 C.ar        1 MOL      -0.0632
     25 C25         8.5543   28.0675    8.6772 C.ar        1 MOL      -0.0635
     26 C26         7.4286   28.1786    9.5163 C.ar        1 MOL      -0.0632
     27 C27         6.2620   28.8234    9.0548 C.ar        1 MOL      -0.0571
     28 O28         0.1646   35.5087    1.6488 O.co2       1 MOL      -0.5638
     29 O29         1.2499   35.5732    3.6881 O.co2       1 MOL      -0.5638
     30 H1          5.3959   27.8885    5.7312 H           1 MOL       0.2176
     31 H2          4.2995   30.3633   -0.0013 H           1 MOL       0.2187
     32 H3          6.3115   26.6858    1.4148 H           1 MOL       0.0849
     33 H4          6.0677   26.6681    3.8469 H           1 MOL       0.0586
     34 H5          2.6788   29.9242    4.7719 H           1 MOL       0.0537
     35 H6          1.7415   31.7054    6.0966 H           1 MOL       0.0591
     36 H7          2.7819   32.3555    8.1833 H           1 MOL       0.0524
     37 H8          4.7952   31.2835    8.9215 H           1 MOL       0.0594
     38 H9          4.7622   32.2878    2.9535 H           1 MOL       0.0545
     39 H10         3.3864   34.1186    3.6111 H           1 MOL       0.0622
     40 H11         0.8007   33.3450    0.3572 H           1 MOL       0.0622
     41 H12         2.1500   31.4680   -0.2618 H           1 MOL       0.0545
     42 H13         7.3659   29.6886    5.9815 H           1 MOL       0.0606
     43 H14         9.3373   28.5524    6.7755 H           1 MOL       0.0613
     44 H15         9.3927   27.5760    8.9985 H           1 MOL       0.0603
     45 H16         7.4558   27.7793   10.4564 H           1 MOL       0.0613
     46 H17         5.4452   28.8736    9.6780 H           1 MOL       0.0606
@<TRIPOS>BOND
     1     1     5  ar
     2     1     6  ar
     3     6     2  ar
     4     2     7  ar
     5     7     3   1
     6     3     9   1
     7     6     4   1
     8     4    16   1
     9     5     8  ar
    10     7     8  ar
    11     9    10  ar
    12     9    14  ar
    13    10    11  ar
    14    11    12  ar
    15    12    13  ar
    16    13    14  ar
    17    14    15   1
    18    15    23  ar
    19    15    27  ar
    20    16    17  ar
    21    16    21  ar
    22    17    18  ar
    23    18    19  ar
    24    19    20  ar
    25    19    22   1
    26    20    21  ar
    27    22    28  ar
    28    22    29  ar
    29    23    24  ar
    30    24    25  ar
    31    25    26  ar
    32    26    27  ar
    33     3    30   1
    34     4    31   1
    35     5    32   1
    36     8    33   1
    37    10    34   1
    38    11    35   1
    39    12    36   1
    40    13    37   1
    41    17    38   1
    42    18    39   1
    43    20    40   1
    44    21    41   1
    45    23    42   1
    46    24    43   1
    47    25    44   1
    48    26    45   1
    49    27    46   1
@<TRIPOS>SUBSTRUCTURE
     1  MOL      5

