@<TRIPOS>MOLECULE
3uo4_ligand_061
    46    49
SMALL
GAST_HUCK
****
This file was generated by PARSER (from files_GN.cpp)

@<TRIPOS>ATOM
      1 N01         4.4578   33.9229    0.2962 N.ar        1 MOL      -0.2685
      2 N02         5.6928   32.1136    1.1088 N.ar        1 MOL      -0.2339
      3 N03         7.3101   31.0160   -0.1170 N.pl3       1 MOL      -0.2537
      4 N04         4.0127   32.9997    2.4577 N.pl3       1 MOL      -0.2427
      5 C05         5.1785   33.9394   -0.8532 C.ar        1 MOL       0.0015
      6 C06         4.7019   33.0252    1.2910 C.ar        1 MOL       0.1962
      7 C07         6.4386   32.0479   -0.0257 C.ar        1 MOL       0.1353
      8 C08         6.2179   33.0128   -1.0348 C.ar        1 MOL      -0.0013
      9 C09         7.8988   30.5143   -1.2405 C.ar        1 MOL       0.0745
     10 C10         9.2334   30.0764   -1.0909 C.ar        1 MOL      -0.0363
     11 C11         9.9495   29.5632   -2.1863 C.ar        1 MOL      -0.0708
     12 C12         9.3290   29.4632   -3.4402 C.ar        1 MOL      -0.0722
     13 C13         7.9826   29.8382   -3.5896 C.ar        1 MOL      -0.0625
     14 C14         7.2399   30.3544   -2.4985 C.ar        1 MOL       0.0075
     15 C15         5.8531   30.6554   -2.6947 C.ar        1 MOL      -0.0223
     16 C16         2.9320   33.7610    2.8064 C.ar        1 MOL       0.0684
     17 C17         2.7425   34.0740    4.1689 C.ar        1 MOL      -0.0343
     18 C18         1.6605   34.8737    4.5858 C.ar        1 MOL      -0.0571
     19 C19         0.7338   35.3799    3.6448 C.ar        1 MOL      -0.0016
     20 C20         0.8935   35.0251    2.2863 C.ar        1 MOL      -0.0571
     21 C21         1.9639   34.2129    1.8781 C.ar        1 MOL      -0.0343
     22 C22        -0.3395   36.2114    4.0386 C.2         1 MOL       0.0553
     23 C23         5.4225   31.3710   -3.8410 C.ar        1 MOL      -0.0571
     24 C24         4.0689   31.7215   -4.0093 C.ar        1 MOL      -0.0632
     25 C25         3.1211   31.3719   -3.0317 C.ar        1 MOL      -0.0635
     26 C26         3.5246   30.6352   -1.9030 C.ar        1 MOL      -0.0632
     27 C27         4.8761   30.2732   -1.7401 C.ar        1 MOL      -0.0571
     28 O28        -1.1373   35.8710    5.0770 O.co2       1 MOL      -0.5638
     29 O29        -0.6813   37.3025    3.3129 O.co2       1 MOL      -0.5638
     30 H1          7.5011   30.5464    0.7091 H           1 MOL       0.2176
     31 H2          4.3722   32.4152    3.1471 H           1 MOL       0.2187
     32 H3          4.9613   34.6253   -1.5754 H           1 MOL       0.0849
     33 H4          6.7950   33.0543   -1.8762 H           1 MOL       0.0586
     34 H5          9.7093   30.1485   -0.1844 H           1 MOL       0.0537
     35 H6         10.9193   29.2612   -2.0699 H           1 MOL       0.0591
     36 H7          9.8521   29.1045   -4.2421 H           1 MOL       0.0524
     37 H8          7.5447   29.7098   -4.5055 H           1 MOL       0.0594
     38 H9          3.4176   33.7501    4.8665 H           1 MOL       0.0545
     39 H10         1.5776   35.1160    5.5767 H           1 MOL       0.0622
     40 H11         0.2162   35.3326    1.5872 H           1 MOL       0.0622
     41 H12         2.0163   33.9366    0.8942 H           1 MOL       0.0545
     42 H13         6.0942   31.6597   -4.5575 H           1 MOL       0.0606
     43 H14         3.7748   32.2308   -4.8459 H           1 MOL       0.0613
     44 H15         2.1433   31.6281   -3.1532 H           1 MOL       0.0603
     45 H16         2.8327   30.3599   -1.2014 H           1 MOL       0.0613
     46 H17         5.1364   29.7160   -0.9227 H           1 MOL       0.0606
@<TRIPOS>BOND
     1     1     5  ar
     2     1     6  ar
     3     6     2  ar
     4     2     7  ar
     5     7     3   1
     6     3     9   1
     7     6     4   1
     8     4    16   1
     9     5     8  ar
    10     7     8  ar
    11     9    10  ar
    12     9    14  ar
    13    10    11  ar
    14    11    12  ar
    15    12    13  ar
    16    13    14  ar
    17    14    15   1
    18    15    23  ar
    19    15    27  ar
    20    16    17  ar
    21    16    21  ar
    22    17    18  ar
    23    18    19  ar
    24    19    20  ar
    25    19    22   1
    26    20    21  ar
    27    22    28  ar
    28    22    29  ar
    29    23    24  ar
    30    24    25  ar
    31    25    26  ar
    32    26    27  ar
    33     3    30   1
    34     4    31   1
    35     5    32   1
    36     8    33   1
    37    10    34   1
    38    11    35   1
    39    12    36   1
    40    13    37   1
    41    17    38   1
    42    18    39   1
    43    20    40   1
    44    21    41   1
    45    23    42   1
    46    24    43   1
    47    25    44   1
    48    26    45   1
    49    27    46   1
@<TRIPOS>SUBSTRUCTURE
     1  MOL      5

