@<TRIPOS>MOLECULE
3uo4_ligand_057
    46    49
SMALL
GAST_HUCK
****
This file was generated by PARSER (from files_GN.cpp)

@<TRIPOS>ATOM
      1 N01         6.0720   30.8283    1.7548 N.ar        1 MOL      -0.2685
      2 N02         5.2296   30.9802    3.9437 N.ar        1 MOL      -0.2339
      3 N03         6.3947   29.9335    5.7647 N.pl3       1 MOL      -0.2537
      4 N04         4.0658   31.9653    2.0969 N.pl3       1 MOL      -0.2427
      5 C05         7.1574   30.1351    2.1951 C.ar        1 MOL       0.0015
      6 C06         5.1119   31.2775    2.6123 C.ar        1 MOL       0.1962
      7 C07         6.2875   30.2796    4.4526 C.ar        1 MOL       0.1353
      8 C08         7.2950   29.8484    3.5655 C.ar        1 MOL      -0.0013
      9 C09         5.4897   30.1088    6.7842 C.ar        1 MOL       0.0745
     10 C10         4.6463   31.2500    6.8290 C.ar        1 MOL      -0.0363
     11 C11         3.7381   31.4440    7.8900 C.ar        1 MOL      -0.0708
     12 C12         3.6486   30.4914    8.9162 C.ar        1 MOL      -0.0722
     13 C13         4.4929   29.3715    8.8998 C.ar        1 MOL      -0.0625
     14 C14         5.4519   29.1809    7.8695 C.ar        1 MOL       0.0075
     15 C15         6.3355   28.0564    7.9757 C.ar        1 MOL      -0.0223
     16 C16         3.0569   32.5151    2.8255 C.ar        1 MOL       0.0684
     17 C17         3.3061   33.3510    3.9400 C.ar        1 MOL      -0.0343
     18 C18         2.2442   33.8464    4.7155 C.ar        1 MOL      -0.0571
     19 C19         0.9125   33.4911    4.3969 C.ar        1 MOL      -0.0016
     20 C20         0.6646   32.7067    3.2463 C.ar        1 MOL      -0.0571
     21 C21         1.7274   32.2488    2.4555 C.ar        1 MOL      -0.0343
     22 C22        -0.1446   33.8691    5.2581 C.2         1 MOL       0.0553
     23 C23         6.3497   27.0281    6.9999 C.ar        1 MOL      -0.0571
     24 C24         7.1883   25.9075    7.1496 C.ar        1 MOL      -0.0632
     25 C25         8.0256   25.7975    8.2739 C.ar        1 MOL      -0.0635
     26 C26         8.0298   26.8129    9.2483 C.ar        1 MOL      -0.0632
     27 C27         7.1949   27.9347    9.0973 C.ar        1 MOL      -0.0571
     28 O28        -0.7210   35.0988    5.1752 O.co2       1 MOL      -0.5638
     29 O29        -0.6687   32.9798    6.1345 O.co2       1 MOL      -0.5638
     30 H1          7.1578   29.3807    5.9770 H           1 MOL       0.2176
     31 H2          3.9874   31.9821    1.1285 H           1 MOL       0.2187
     32 H3          7.8555   29.8189    1.5243 H           1 MOL       0.0849
     33 H4          8.1012   29.3229    3.8953 H           1 MOL       0.0586
     34 H5          4.7037   31.9699    6.1050 H           1 MOL       0.0537
     35 H6          3.1417   32.2797    7.9100 H           1 MOL       0.0591
     36 H7          2.9836   30.6186    9.6726 H           1 MOL       0.0524
     37 H8          4.3999   28.6889    9.6541 H           1 MOL       0.0594
     38 H9          4.2647   33.5924    4.1983 H           1 MOL       0.0545
     39 H10         2.4485   34.4236    5.5343 H           1 MOL       0.0622
     40 H11        -0.2916   32.4615    2.9837 H           1 MOL       0.0622
     41 H12         1.5246   31.6689    1.6404 H           1 MOL       0.0545
     42 H13         5.7346   27.0805    6.1854 H           1 MOL       0.0606
     43 H14         7.1771   25.1669    6.4507 H           1 MOL       0.0613
     44 H15         8.6276   24.9787    8.3889 H           1 MOL       0.0603
     45 H16         8.6362   26.7320   10.0671 H           1 MOL       0.0613
     46 H17         7.2207   28.6645    9.8113 H           1 MOL       0.0606
@<TRIPOS>BOND
     1     1     5  ar
     2     1     6  ar
     3     6     2  ar
     4     2     7  ar
     5     7     3   1
     6     3     9   1
     7     6     4   1
     8     4    16   1
     9     5     8  ar
    10     7     8  ar
    11     9    10  ar
    12     9    14  ar
    13    10    11  ar
    14    11    12  ar
    15    12    13  ar
    16    13    14  ar
    17    14    15   1
    18    15    23  ar
    19    15    27  ar
    20    16    17  ar
    21    16    21  ar
    22    17    18  ar
    23    18    19  ar
    24    19    20  ar
    25    19    22   1
    26    20    21  ar
    27    22    28  ar
    28    22    29  ar
    29    23    24  ar
    30    24    25  ar
    31    25    26  ar
    32    26    27  ar
    33     3    30   1
    34     4    31   1
    35     5    32   1
    36     8    33   1
    37    10    34   1
    38    11    35   1
    39    12    36   1
    40    13    37   1
    41    17    38   1
    42    18    39   1
    43    20    40   1
    44    21    41   1
    45    23    42   1
    46    24    43   1
    47    25    44   1
    48    26    45   1
    49    27    46   1
@<TRIPOS>SUBSTRUCTURE
     1  MOL      5

