@<TRIPOS>MOLECULE
3uo4_ligand_020
    46    49
SMALL
GAST_HUCK
****
This file was generated by PARSER (from files_GN.cpp)

@<TRIPOS>ATOM
      1 N01         4.0405   31.2997    2.3125 N.ar        1 MOL      -0.2685
      2 N02         5.6745   30.6447    3.8489 N.ar        1 MOL      -0.2339
      3 N03         7.2316   28.9824    3.4565 N.pl3       1 MOL      -0.2537
      4 N04         4.2074   32.3498    4.4514 N.pl3       1 MOL      -0.2427
      5 C05         4.4619   30.3674    1.4246 C.ar        1 MOL       0.0015
      6 C06         4.6328   31.4573    3.5278 C.ar        1 MOL       0.1962
      7 C07         6.1699   29.6976    3.0078 C.ar        1 MOL       0.1353
      8 C08         5.5337   29.5213    1.7550 C.ar        1 MOL      -0.0013
      9 C09         7.9927   28.0637    2.7827 C.ar        1 MOL       0.0745
     10 C10         8.3680   28.2921    1.4369 C.ar        1 MOL      -0.0363
     11 C11         9.1584   27.3631    0.7360 C.ar        1 MOL      -0.0708
     12 C12         9.6170   26.2048    1.3829 C.ar        1 MOL      -0.0722
     13 C13         9.3120   25.9927    2.7367 C.ar        1 MOL      -0.0625
     14 C14         8.5167   26.9232    3.4502 C.ar        1 MOL       0.0075
     15 C15         8.3037   26.6741    4.8276 C.ar        1 MOL      -0.0223
     16 C16         3.1893   33.2489    4.3283 C.ar        1 MOL       0.0684
     17 C17         2.4599   33.5796    5.4865 C.ar        1 MOL      -0.0343
     18 C18         1.3822   34.4778    5.4232 C.ar        1 MOL      -0.0571
     19 C19         1.0259   35.1033    4.2023 C.ar        1 MOL      -0.0016
     20 C20         1.7907   34.8015    3.0497 C.ar        1 MOL      -0.0571
     21 C21         2.8612   33.8901    3.1133 C.ar        1 MOL      -0.0343
     22 C22        -0.0682   36.0054    4.1362 C.2         1 MOL       0.0553
     23 C23         9.3402   26.9415    5.7527 C.ar        1 MOL      -0.0571
     24 C24         9.1852   26.6174    7.1123 C.ar        1 MOL      -0.0632
     25 C25         7.9942   26.0117    7.5575 C.ar        1 MOL      -0.0635
     26 C26         6.9588   25.7380    6.6442 C.ar        1 MOL      -0.0632
     27 C27         7.1117   26.0672    5.2837 C.ar        1 MOL      -0.0571
     28 O28        -0.2074   36.8914    3.1197 O.co2       1 MOL      -0.5638
     29 O29        -1.0654   35.9598    5.0520 O.co2       1 MOL      -0.5638
     30 H1          7.4558   29.1174    4.3896 H           1 MOL       0.2176
     31 H2          4.6115   32.2749    5.3297 H           1 MOL       0.2187
     32 H3          3.9922   30.2799    0.5188 H           1 MOL       0.0849
     33 H4          5.8200   28.7899    1.1012 H           1 MOL       0.0586
     34 H5          8.0768   29.1469    0.9595 H           1 MOL       0.0537
     35 H6          9.4146   27.5376   -0.2365 H           1 MOL       0.0591
     36 H7         10.1906   25.5277    0.8762 H           1 MOL       0.0524
     37 H8          9.6804   25.1569    3.2005 H           1 MOL       0.0594
     38 H9          2.7021   33.1518    6.3839 H           1 MOL       0.0545
     39 H10         0.8657   34.6780    6.2808 H           1 MOL       0.0622
     40 H11         1.5732   35.2395    2.1498 H           1 MOL       0.0622
     41 H12         3.4206   33.7229    2.2729 H           1 MOL       0.0545
     42 H13        10.2183   27.3646    5.4394 H           1 MOL       0.0606
     43 H14         9.9410   26.8076    7.7738 H           1 MOL       0.0613
     44 H15         7.8842   25.7670    8.5447 H           1 MOL       0.0603
     45 H16         6.1030   25.2849    6.9710 H           1 MOL       0.0613
     46 H17         6.3589   25.8431    4.6272 H           1 MOL       0.0606
@<TRIPOS>BOND
     1     1     5  ar
     2     1     6  ar
     3     6     2  ar
     4     2     7  ar
     5     7     3   1
     6     3     9   1
     7     6     4   1
     8     4    16   1
     9     5     8  ar
    10     7     8  ar
    11     9    10  ar
    12     9    14  ar
    13    10    11  ar
    14    11    12  ar
    15    12    13  ar
    16    13    14  ar
    17    14    15   1
    18    15    23  ar
    19    15    27  ar
    20    16    17  ar
    21    16    21  ar
    22    17    18  ar
    23    18    19  ar
    24    19    20  ar
    25    19    22   1
    26    20    21  ar
    27    22    28  ar
    28    22    29  ar
    29    23    24  ar
    30    24    25  ar
    31    25    26  ar
    32    26    27  ar
    33     3    30   1
    34     4    31   1
    35     5    32   1
    36     8    33   1
    37    10    34   1
    38    11    35   1
    39    12    36   1
    40    13    37   1
    41    17    38   1
    42    18    39   1
    43    20    40   1
    44    21    41   1
    45    23    42   1
    46    24    43   1
    47    25    44   1
    48    26    45   1
    49    27    46   1
@<TRIPOS>SUBSTRUCTURE
     1  MOL      5

