@<TRIPOS>MOLECULE
3uo4_ligand_067
    46    49
SMALL
GAST_HUCK
****
This file was generated by PARSER (from files_GN.cpp)

@<TRIPOS>ATOM
      1 N01         4.4265   31.1692    2.5462 N.ar        1 MOL      -0.2685
      2 N02         6.4995   30.4639    1.7490 N.ar        1 MOL      -0.2339
      3 N03         8.3181   30.0167    3.1145 N.pl3       1 MOL      -0.2537
      4 N04         4.7680   30.8570    0.2130 N.pl3       1 MOL      -0.2427
      5 C05         4.8519   31.1036    3.8265 C.ar        1 MOL       0.0015
      6 C06         5.2226   30.8549    1.4899 C.ar        1 MOL       0.1962
      7 C07         7.0215   30.4052    3.0090 C.ar        1 MOL       0.1353
      8 C08         6.1716   30.7113    4.1001 C.ar        1 MOL      -0.0013
      9 C09         9.0674   29.8642    4.2543 C.ar        1 MOL       0.0745
     10 C10         9.1478   30.9208    5.1912 C.ar        1 MOL      -0.0363
     11 C11         9.9459   30.8192    6.3425 C.ar        1 MOL      -0.0708
     12 C12        10.7002   29.6569    6.5613 C.ar        1 MOL      -0.0722
     13 C13        10.6711   28.6152    5.6176 C.ar        1 MOL      -0.0625
     14 C14         9.8639   28.6990    4.4519 C.ar        1 MOL       0.0075
     15 C15         9.8884   27.6095    3.5241 C.ar        1 MOL      -0.0223
     16 C16         3.5006   31.1945   -0.1833 C.ar        1 MOL       0.0684
     17 C17         2.8253   30.3597   -1.0947 C.ar        1 MOL      -0.0343
     18 C18         1.4965   30.6399   -1.4726 C.ar        1 MOL      -0.0571
     19 C19         0.8203   31.7822   -0.9806 C.ar        1 MOL      -0.0016
     20 C20         1.5269   32.6481   -0.1121 C.ar        1 MOL      -0.0571
     21 C21         2.8453   32.3573    0.2827 C.ar        1 MOL      -0.0343
     22 C22        -0.5328   32.0505   -1.3401 C.2         1 MOL       0.0553
     23 C23        11.1076   26.9630    3.1912 C.ar        1 MOL      -0.0571
     24 C24        11.1363   25.9133    2.2498 C.ar        1 MOL      -0.0632
     25 C25         9.9486   25.5052    1.6146 C.ar        1 MOL      -0.0635
     26 C26         8.7342   26.1366    1.9334 C.ar        1 MOL      -0.0632
     27 C27         8.7007   27.1602    2.8977 C.ar        1 MOL      -0.0571
     28 O28        -1.3835   31.0588   -1.6963 O.co2       1 MOL      -0.5638
     29 O29        -1.0527   33.2997   -1.2738 O.co2       1 MOL      -0.5638
     30 H1          8.7235   29.6869    2.2969 H           1 MOL       0.2176
     31 H2          5.3532   30.4648   -0.4563 H           1 MOL       0.2187
     32 H3          4.2123   31.3411    4.5856 H           1 MOL       0.0849
     33 H4          6.4741   30.6306    5.0673 H           1 MOL       0.0586
     34 H5          8.6258   31.7844    5.0320 H           1 MOL       0.0537
     35 H6          9.9836   31.5908    7.0113 H           1 MOL       0.0591
     36 H7         11.2765   29.5829    7.4031 H           1 MOL       0.0524
     37 H8         11.2212   27.7782    5.8091 H           1 MOL       0.0594
     38 H9          3.2818   29.5177   -1.4543 H           1 MOL       0.0545
     39 H10         1.0295   29.9975   -2.1172 H           1 MOL       0.0622
     40 H11         1.0864   33.4973    0.2522 H           1 MOL       0.0622
     41 H12         3.3316   33.0100    0.9044 H           1 MOL       0.0545
     42 H13        11.9903   27.2654    3.6146 H           1 MOL       0.0606
     43 H14        12.0218   25.4506    2.0207 H           1 MOL       0.0613
     44 H15         9.9702   24.7500    0.9231 H           1 MOL       0.0603
     45 H16         7.8713   25.8457    1.4671 H           1 MOL       0.0613
     46 H17         7.8009   27.5787    3.1380 H           1 MOL       0.0606
@<TRIPOS>BOND
     1     1     5  ar
     2     1     6  ar
     3     6     2  ar
     4     2     7  ar
     5     7     3   1
     6     3     9   1
     7     6     4   1
     8     4    16   1
     9     5     8  ar
    10     7     8  ar
    11     9    10  ar
    12     9    14  ar
    13    10    11  ar
    14    11    12  ar
    15    12    13  ar
    16    13    14  ar
    17    14    15   1
    18    15    23  ar
    19    15    27  ar
    20    16    17  ar
    21    16    21  ar
    22    17    18  ar
    23    18    19  ar
    24    19    20  ar
    25    19    22   1
    26    20    21  ar
    27    22    28  ar
    28    22    29  ar
    29    23    24  ar
    30    24    25  ar
    31    25    26  ar
    32    26    27  ar
    33     3    30   1
    34     4    31   1
    35     5    32   1
    36     8    33   1
    37    10    34   1
    38    11    35   1
    39    12    36   1
    40    13    37   1
    41    17    38   1
    42    18    39   1
    43    20    40   1
    44    21    41   1
    45    23    42   1
    46    24    43   1
    47    25    44   1
    48    26    45   1
    49    27    46   1
@<TRIPOS>SUBSTRUCTURE
     1  MOL      5

