@<TRIPOS>MOLECULE
3uo4_ligand_049
    46    49
SMALL
GAST_HUCK
****
This file was generated by PARSER (from files_GN.cpp)

@<TRIPOS>ATOM
      1 N01         5.4304   29.0643    0.7063 N.ar        1 MOL      -0.2685
      2 N02         6.5156   29.7962    2.6450 N.ar        1 MOL      -0.2339
      3 N03         8.2851   28.4628    3.6037 N.pl3       1 MOL      -0.2537
      4 N04         4.8283   31.1304    1.7819 N.pl3       1 MOL      -0.2427
      5 C05         6.1862   27.9385    0.6803 C.ar        1 MOL       0.0015
      6 C06         5.5617   29.9945    1.6868 C.ar        1 MOL       0.1962
      7 C07         7.3217   28.6941    2.6768 C.ar        1 MOL       0.1353
      8 C08         7.1482   27.7083    1.6803 C.ar        1 MOL      -0.0013
      9 C09         8.8049   29.2529    4.6026 C.ar        1 MOL       0.0745
     10 C10         8.7321   30.6676    4.5474 C.ar        1 MOL      -0.0363
     11 C11         9.3198   31.4634    5.5462 C.ar        1 MOL      -0.0708
     12 C12         9.9992   30.8676    6.6157 C.ar        1 MOL      -0.0722
     13 C13        10.1120   29.4697    6.6733 C.ar        1 MOL      -0.0625
     14 C14         9.5303   28.6510    5.6764 C.ar        1 MOL       0.0075
     15 C15         9.6829   27.2417    5.8041 C.ar        1 MOL      -0.0223
     16 C16         3.8377   31.6513    0.9801 C.ar        1 MOL       0.0684
     17 C17         3.2633   32.8699    1.4132 C.ar        1 MOL      -0.0343
     18 C18         2.2210   33.4944    0.6973 C.ar        1 MOL      -0.0571
     19 C19         1.7408   32.9235   -0.5023 C.ar        1 MOL      -0.0016
     20 C20         2.3190   31.7186   -0.9574 C.ar        1 MOL      -0.0571
     21 C21         3.3449   31.0888   -0.2258 C.ar        1 MOL      -0.0343
     22 C22         0.7126   33.5287   -1.2550 C.2         1 MOL       0.0553
     23 C23        10.4237   26.5025    4.8533 C.ar        1 MOL      -0.0571
     24 C24        10.5620   25.1100    4.9795 C.ar        1 MOL      -0.0632
     25 C25         9.9775   24.4370    6.0697 C.ar        1 MOL      -0.0635
     26 C26         9.2562   25.1631    7.0349 C.ar        1 MOL      -0.0632
     27 C27         9.1153   26.5590    6.9044 C.ar        1 MOL      -0.0571
     28 O28         0.9972   34.0920   -2.4522 O.co2       1 MOL      -0.5638
     29 O29        -0.5049   33.7710   -0.7094 O.co2       1 MOL      -0.5638
     30 H1          8.6744   27.5717    3.5372 H           1 MOL       0.2176
     31 H2          5.0491   31.6694    2.5566 H           1 MOL       0.2187
     32 H3          6.0599   27.2567   -0.0748 H           1 MOL       0.0849
     33 H4          7.7201   26.8593    1.6664 H           1 MOL       0.0586
     34 H5          8.2931   31.1365    3.7539 H           1 MOL       0.0537
     35 H6          9.2593   32.4840    5.4834 H           1 MOL       0.0591
     36 H7         10.4283   31.4493    7.3363 H           1 MOL       0.0524
     37 H8         10.6434   29.0507    7.4450 H           1 MOL       0.0594
     38 H9          3.6073   33.3261    2.2685 H           1 MOL       0.0545
     39 H10         1.8351   34.3807    1.0439 H           1 MOL       0.0622
     40 H11         1.9821   31.2837   -1.8217 H           1 MOL       0.0622
     41 H12         3.7188   30.2141   -0.5935 H           1 MOL       0.0545
     42 H13        10.8703   26.9766    4.0623 H           1 MOL       0.0606
     43 H14        11.0940   24.5891    4.2803 H           1 MOL       0.0613
     44 H15        10.0767   23.4253    6.1580 H           1 MOL       0.0603
     45 H16         8.8292   24.6782    7.8265 H           1 MOL       0.0613
     46 H17         8.5819   27.0663    7.6156 H           1 MOL       0.0606
@<TRIPOS>BOND
     1     1     5  ar
     2     1     6  ar
     3     6     2  ar
     4     2     7  ar
     5     7     3   1
     6     3     9   1
     7     6     4   1
     8     4    16   1
     9     5     8  ar
    10     7     8  ar
    11     9    10  ar
    12     9    14  ar
    13    10    11  ar
    14    11    12  ar
    15    12    13  ar
    16    13    14  ar
    17    14    15   1
    18    15    23  ar
    19    15    27  ar
    20    16    17  ar
    21    16    21  ar
    22    17    18  ar
    23    18    19  ar
    24    19    20  ar
    25    19    22   1
    26    20    21  ar
    27    22    28  ar
    28    22    29  ar
    29    23    24  ar
    30    24    25  ar
    31    25    26  ar
    32    26    27  ar
    33     3    30   1
    34     4    31   1
    35     5    32   1
    36     8    33   1
    37    10    34   1
    38    11    35   1
    39    12    36   1
    40    13    37   1
    41    17    38   1
    42    18    39   1
    43    20    40   1
    44    21    41   1
    45    23    42   1
    46    24    43   1
    47    25    44   1
    48    26    45   1
    49    27    46   1
@<TRIPOS>SUBSTRUCTURE
     1  MOL      5

