@<TRIPOS>MOLECULE
3uo4_ligand_062
    46    49
SMALL
GAST_HUCK
****
This file was generated by PARSER (from files_GN.cpp)

@<TRIPOS>ATOM
      1 N01         2.2321   31.7474    0.3021 N.ar        1 MOL      -0.2685
      2 N02         4.4938   31.2884    0.6445 N.ar        1 MOL      -0.2339
      3 N03         5.6340   29.6975   -0.7198 N.pl3       1 MOL      -0.2537
      4 N04         3.4841   32.8731    2.0061 N.pl3       1 MOL      -0.2427
      5 C05         2.1677   30.8413   -0.7032 C.ar        1 MOL       0.0015
      6 C06         3.3821   31.9908    0.9856 C.ar        1 MOL       0.1962
      7 C07         4.5124   30.3591   -0.3524 C.ar        1 MOL       0.1353
      8 C08         3.3189   30.1162   -1.0606 C.ar        1 MOL      -0.0013
      9 C09         6.8871   29.8342   -0.1920 C.ar        1 MOL       0.0745
     10 C10         7.1067   29.8147    1.2083 C.ar        1 MOL      -0.0363
     11 C11         8.4026   29.9622    1.7385 C.ar        1 MOL      -0.0708
     12 C12         9.4998   30.1127    0.8733 C.ar        1 MOL      -0.0722
     13 C13         9.3007   30.1118   -0.5158 C.ar        1 MOL      -0.0625
     14 C14         8.0042   29.9611   -1.0597 C.ar        1 MOL       0.0075
     15 C15         7.8620   29.9733   -2.4720 C.ar        1 MOL      -0.0223
     16 C16         2.5221   33.7203    2.4787 C.ar        1 MOL       0.0684
     17 C17         1.5177   34.2856    1.6614 C.ar        1 MOL      -0.0343
     18 C18         0.5595   35.1575    2.1991 C.ar        1 MOL      -0.0571
     19 C19         0.5819   35.4963    3.5693 C.ar        1 MOL      -0.0016
     20 C20         1.6014   34.9544    4.3861 C.ar        1 MOL      -0.0571
     21 C21         2.5694   34.0903    3.8396 C.ar        1 MOL      -0.0343
     22 C22        -0.4095   36.3485    4.1069 C.2         1 MOL       0.0553
     23 C23         7.9616   31.1873   -3.1927 C.ar        1 MOL      -0.0571
     24 C24         7.8291   31.1956   -4.5937 C.ar        1 MOL      -0.0632
     25 C25         7.5962   29.9952   -5.2871 C.ar        1 MOL      -0.0635
     26 C26         7.4957   28.7837   -4.5800 C.ar        1 MOL      -0.0632
     27 C27         7.6259   28.7711   -3.1789 C.ar        1 MOL      -0.0571
     28 O28        -1.1458   35.9722    5.1789 O.co2       1 MOL      -0.5638
     29 O29        -0.7458   37.5102    3.4950 O.co2       1 MOL      -0.5638
     30 H1          5.5560   29.1354   -1.5041 H           1 MOL       0.2176
     31 H2          4.3235   32.8561    2.4937 H           1 MOL       0.2187
     32 H3          1.2832   30.6895   -1.1927 H           1 MOL       0.0849
     33 H4          3.2748   29.4344   -1.8228 H           1 MOL       0.0586
     34 H5          6.3287   29.6807    1.8562 H           1 MOL       0.0537
     35 H6          8.5487   29.9544    2.7520 H           1 MOL       0.0591
     36 H7         10.4405   30.2166    1.2583 H           1 MOL       0.0524
     37 H8         10.1137   30.2126   -1.1310 H           1 MOL       0.0594
     38 H9          1.4816   34.0798    0.6626 H           1 MOL       0.0545
     39 H10        -0.1705   35.5238    1.5865 H           1 MOL       0.0622
     40 H11         1.6551   35.1948    5.3794 H           1 MOL       0.0622
     41 H12         3.2988   33.7153    4.4509 H           1 MOL       0.0545
     42 H13         8.1280   32.0691   -2.7004 H           1 MOL       0.0606
     43 H14         7.9026   32.0765   -5.1070 H           1 MOL       0.0613
     44 H15         7.5025   30.0026   -6.3047 H           1 MOL       0.0603
     45 H16         7.3288   27.9109   -5.0845 H           1 MOL       0.0613
     46 H17         7.5552   27.8811   -2.6786 H           1 MOL       0.0606
@<TRIPOS>BOND
     1     1     5  ar
     2     1     6  ar
     3     6     2  ar
     4     2     7  ar
     5     7     3   1
     6     3     9   1
     7     6     4   1
     8     4    16   1
     9     5     8  ar
    10     7     8  ar
    11     9    10  ar
    12     9    14  ar
    13    10    11  ar
    14    11    12  ar
    15    12    13  ar
    16    13    14  ar
    17    14    15   1
    18    15    23  ar
    19    15    27  ar
    20    16    17  ar
    21    16    21  ar
    22    17    18  ar
    23    18    19  ar
    24    19    20  ar
    25    19    22   1
    26    20    21  ar
    27    22    28  ar
    28    22    29  ar
    29    23    24  ar
    30    24    25  ar
    31    25    26  ar
    32    26    27  ar
    33     3    30   1
    34     4    31   1
    35     5    32   1
    36     8    33   1
    37    10    34   1
    38    11    35   1
    39    12    36   1
    40    13    37   1
    41    17    38   1
    42    18    39   1
    43    20    40   1
    44    21    41   1
    45    23    42   1
    46    24    43   1
    47    25    44   1
    48    26    45   1
    49    27    46   1
@<TRIPOS>SUBSTRUCTURE
     1  MOL      5

