@<TRIPOS>MOLECULE
3uo4_ligand_042
    46    49
SMALL
GAST_HUCK
****
This file was generated by PARSER (from files_GN.cpp)

@<TRIPOS>ATOM
      1 N01         3.2998   30.4101    4.2868 N.ar        1 MOL      -0.2685
      2 N02         4.7797   29.9408    6.0338 N.ar        1 MOL      -0.2339
      3 N03         6.0437   27.8925    5.9874 N.pl3       1 MOL      -0.2537
      4 N04         3.5869   31.9501    6.0726 N.pl3       1 MOL      -0.2427
      5 C05         3.5755   29.2227    3.6923 C.ar        1 MOL       0.0015
      6 C06         3.8852   30.7855    5.4529 C.ar        1 MOL       0.1962
      7 C07         5.1110   28.7343    5.4845 C.ar        1 MOL       0.1353
      8 C08         4.5039   28.3507    4.2753 C.ar        1 MOL      -0.0013
      9 C09         6.7955   28.0728    7.1093 C.ar        1 MOL       0.0745
     10 C10         6.1611   28.2317    8.3618 C.ar        1 MOL      -0.0363
     11 C11         6.9230   28.3098    9.5395 C.ar        1 MOL      -0.0708
     12 C12         8.3238   28.2303    9.4774 C.ar        1 MOL      -0.0722
     13 C13         8.9628   28.0523    8.2383 C.ar        1 MOL      -0.0625
     14 C14         8.2115   27.9559    7.0424 C.ar        1 MOL       0.0075
     15 C15         8.9033   27.7937    5.8086 C.ar        1 MOL      -0.0223
     16 C16         2.7266   32.9010    5.6033 C.ar        1 MOL       0.0684
     17 C17         1.6709   33.3312    6.4333 C.ar        1 MOL      -0.0343
     18 C18         0.7556   34.2952    5.9745 C.ar        1 MOL      -0.0571
     19 C19         0.8864   34.8856    4.6935 C.ar        1 MOL      -0.0016
     20 C20         1.9778   34.4778    3.8861 C.ar        1 MOL      -0.0571
     21 C21         2.8838   33.4976    4.3316 C.ar        1 MOL      -0.0343
     22 C22        -0.0559   35.8494    4.2426 C.2         1 MOL       0.0553
     23 C23         9.7430   26.6750    5.5865 C.ar        1 MOL      -0.0571
     24 C24        10.4234   26.5229    4.3643 C.ar        1 MOL      -0.0632
     25 C25        10.2892   27.4958    3.3571 C.ar        1 MOL      -0.0635
     26 C26         9.4678   28.6173    3.5700 C.ar        1 MOL      -0.0632
     27 C27         8.7759   28.7634    4.7855 C.ar        1 MOL      -0.0571
     28 O28        -1.1970   36.0979    4.9300 O.co2       1 MOL      -0.5638
     29 O29         0.1361   36.5486    3.0988 O.co2       1 MOL      -0.5638
     30 H1          6.2775   27.1347    5.4272 H           1 MOL       0.2176
     31 H2          3.9522   32.0798    6.9634 H           1 MOL       0.2187
     32 H3          3.1068   28.9821    2.8180 H           1 MOL       0.0849
     33 H4          4.7087   27.4542    3.8235 H           1 MOL       0.0586
     34 H5          5.1411   28.2528    8.4288 H           1 MOL       0.0537
     35 H6          6.4565   28.4111   10.4429 H           1 MOL       0.0591
     36 H7          8.8785   28.2962   10.3341 H           1 MOL       0.0524
     37 H8          9.9856   28.0060    8.2151 H           1 MOL       0.0594
     38 H9          1.5403   32.9186    7.3599 H           1 MOL       0.0545
     39 H10        -0.0175   34.5608    6.5894 H           1 MOL       0.0622
     40 H11         2.1197   34.8819    2.9568 H           1 MOL       0.0622
     41 H12         3.6622   33.2272    3.7313 H           1 MOL       0.0545
     42 H13         9.8565   25.9582    6.3088 H           1 MOL       0.0606
     43 H14        11.0169   25.7048    4.2074 H           1 MOL       0.0613
     44 H15        10.7889   27.3884    2.4725 H           1 MOL       0.0603
     45 H16         9.3744   29.3284    2.8414 H           1 MOL       0.0613
     46 H17         8.1899   29.5916    4.9241 H           1 MOL       0.0606
@<TRIPOS>BOND
     1     1     5  ar
     2     1     6  ar
     3     6     2  ar
     4     2     7  ar
     5     7     3   1
     6     3     9   1
     7     6     4   1
     8     4    16   1
     9     5     8  ar
    10     7     8  ar
    11     9    10  ar
    12     9    14  ar
    13    10    11  ar
    14    11    12  ar
    15    12    13  ar
    16    13    14  ar
    17    14    15   1
    18    15    23  ar
    19    15    27  ar
    20    16    17  ar
    21    16    21  ar
    22    17    18  ar
    23    18    19  ar
    24    19    20  ar
    25    19    22   1
    26    20    21  ar
    27    22    28  ar
    28    22    29  ar
    29    23    24  ar
    30    24    25  ar
    31    25    26  ar
    32    26    27  ar
    33     3    30   1
    34     4    31   1
    35     5    32   1
    36     8    33   1
    37    10    34   1
    38    11    35   1
    39    12    36   1
    40    13    37   1
    41    17    38   1
    42    18    39   1
    43    20    40   1
    44    21    41   1
    45    23    42   1
    46    24    43   1
    47    25    44   1
    48    26    45   1
    49    27    46   1
@<TRIPOS>SUBSTRUCTURE
     1  MOL      5

