@<TRIPOS>MOLECULE
3uo4_ligand_040
    46    49
SMALL
GAST_HUCK
****
This file was generated by PARSER (from files_GN.cpp)

@<TRIPOS>ATOM
      1 N01         5.7656   31.9424    0.5632 N.ar        1 MOL      -0.2685
      2 N02         5.1477   31.3007    2.7130 N.ar        1 MOL      -0.2339
      3 N03         6.3994   29.6737    3.9381 N.pl3       1 MOL      -0.2537
      4 N04         3.9181   32.9869    1.5110 N.pl3       1 MOL      -0.2427
      5 C05         6.8060   31.0719    0.5852 C.ar        1 MOL       0.0015
      6 C06         4.9137   32.0682    1.6107 C.ar        1 MOL       0.1962
      7 C07         6.1609   30.4005    2.8160 C.ar        1 MOL       0.1353
      8 C08         7.0354   30.2733    1.7212 C.ar        1 MOL      -0.0013
      9 C09         5.6863   29.6859    5.1100 C.ar        1 MOL       0.0745
     10 C10         4.2730   29.6150    5.0877 C.ar        1 MOL      -0.0363
     11 C11         3.5258   29.6265    6.2746 C.ar        1 MOL      -0.0708
     12 C12         4.1834   29.6631    7.5111 C.ar        1 MOL      -0.0722
     13 C13         5.5877   29.6753    7.5568 C.ar        1 MOL      -0.0625
     14 C14         6.3579   29.6771    6.3664 C.ar        1 MOL       0.0075
     15 C15         7.7780   29.6847    6.4759 C.ar        1 MOL      -0.0223
     16 C16         2.9191   33.2533    2.4101 C.ar        1 MOL       0.0684
     17 C17         2.3271   32.2765    3.2449 C.ar        1 MOL      -0.0343
     18 C18         1.3288   32.6133    4.1681 C.ar        1 MOL      -0.0571
     19 C19         0.8316   33.9300    4.2522 C.ar        1 MOL      -0.0016
     20 C20         1.3743   34.8980    3.3720 C.ar        1 MOL      -0.0571
     21 C21         2.3979   34.5640    2.4610 C.ar        1 MOL      -0.0343
     22 C22        -0.1864   34.2522    5.1896 C.2         1 MOL       0.0553
     23 C23         8.4491   28.6542    7.1767 C.ar        1 MOL      -0.0571
     24 C24         9.8512   28.6600    7.2999 C.ar        1 MOL      -0.0632
     25 C25        10.6020   29.7049    6.7325 C.ar        1 MOL      -0.0635
     26 C26         9.9497   30.7410    6.0395 C.ar        1 MOL      -0.0632
     27 C27         8.5479   30.7284    5.9088 C.ar        1 MOL      -0.0571
     28 O28        -0.6588   33.3313    6.0629 O.co2       1 MOL      -0.5638
     29 O29        -0.7833   35.4656    5.2075 O.co2       1 MOL      -0.5638
     30 H1          7.2313   29.1760    3.9500 H           1 MOL       0.2176
     31 H2          3.9527   33.5559    0.7274 H           1 MOL       0.2187
     32 H3          7.4358   31.0211   -0.2158 H           1 MOL       0.0849
     33 H4          7.8282   29.6310    1.7506 H           1 MOL       0.0586
     34 H5          3.7775   29.5216    4.2012 H           1 MOL       0.0537
     35 H6          2.5054   29.5898    6.2359 H           1 MOL       0.0591
     36 H7          3.6418   29.6649    8.3772 H           1 MOL       0.0524
     37 H8          6.0452   29.6943    8.4732 H           1 MOL       0.0594
     38 H9          2.5920   31.2996    3.1698 H           1 MOL       0.0545
     39 H10         0.9631   31.8727    4.7701 H           1 MOL       0.0622
     40 H11         1.0383   35.8669    3.3973 H           1 MOL       0.0622
     41 H12         2.7774   35.2955    1.8524 H           1 MOL       0.0545
     42 H13         7.9217   27.8829    7.5974 H           1 MOL       0.0606
     43 H14        10.3242   27.9082    7.8053 H           1 MOL       0.0613
     44 H15        11.6211   29.7121    6.8276 H           1 MOL       0.0603
     45 H16        10.4929   31.5055    5.6353 H           1 MOL       0.0613
     46 H17         8.0934   31.4958    5.4063 H           1 MOL       0.0606
@<TRIPOS>BOND
     1     1     5  ar
     2     1     6  ar
     3     6     2  ar
     4     2     7  ar
     5     7     3   1
     6     3     9   1
     7     6     4   1
     8     4    16   1
     9     5     8  ar
    10     7     8  ar
    11     9    10  ar
    12     9    14  ar
    13    10    11  ar
    14    11    12  ar
    15    12    13  ar
    16    13    14  ar
    17    14    15   1
    18    15    23  ar
    19    15    27  ar
    20    16    17  ar
    21    16    21  ar
    22    17    18  ar
    23    18    19  ar
    24    19    20  ar
    25    19    22   1
    26    20    21  ar
    27    22    28  ar
    28    22    29  ar
    29    23    24  ar
    30    24    25  ar
    31    25    26  ar
    32    26    27  ar
    33     3    30   1
    34     4    31   1
    35     5    32   1
    36     8    33   1
    37    10    34   1
    38    11    35   1
    39    12    36   1
    40    13    37   1
    41    17    38   1
    42    18    39   1
    43    20    40   1
    44    21    41   1
    45    23    42   1
    46    24    43   1
    47    25    44   1
    48    26    45   1
    49    27    46   1
@<TRIPOS>SUBSTRUCTURE
     1  MOL      5

