@<TRIPOS>MOLECULE
3uo4_ligand_045
    46    49
SMALL
GAST_HUCK
****
This file was generated by PARSER (from files_GN.cpp)

@<TRIPOS>ATOM
      1 N01         8.1311   24.8134    6.8472 N.ar        1 MOL      -0.2685
      2 N02         8.4734   27.0665    6.3448 N.ar        1 MOL      -0.2339
      3 N03        10.3816   27.7950    5.1531 N.pl3       1 MOL      -0.2537
      4 N04         6.5306   26.3786    7.5234 N.pl3       1 MOL      -0.2427
      5 C05         9.2880   24.4701    6.2243 C.ar        1 MOL       0.0015
      6 C06         7.6981   26.0998    6.9035 C.ar        1 MOL       0.1962
      7 C07         9.6508   26.8020    5.7133 C.ar        1 MOL       0.1353
      8 C08        10.0795   25.4631    5.6220 C.ar        1 MOL      -0.0013
      9 C09        10.0307   29.1109    5.2073 C.ar        1 MOL       0.0745
     10 C10        10.4713   29.8706    6.3142 C.ar        1 MOL      -0.0363
     11 C11        10.1568   31.2373    6.4143 C.ar        1 MOL      -0.0708
     12 C12         9.3934   31.8529    5.4092 C.ar        1 MOL      -0.0722
     13 C13         8.9442   31.1011    4.3092 C.ar        1 MOL      -0.0625
     14 C14         9.2617   29.7257    4.1814 C.ar        1 MOL       0.0075
     15 C15         8.8357   29.0269    3.0178 C.ar        1 MOL      -0.0223
     16 C16         5.9604   27.6117    7.5830 C.ar        1 MOL       0.0684
     17 C17         5.9850   28.3321    8.7908 C.ar        1 MOL      -0.0343
     18 C18         5.3338   29.5741    8.8882 C.ar        1 MOL      -0.0571
     19 C19         4.6247   30.1152    7.7865 C.ar        1 MOL      -0.0016
     20 C20         4.6225   29.3874    6.5710 C.ar        1 MOL      -0.0571
     21 C21         5.2915   28.1544    6.4671 C.ar        1 MOL      -0.0343
     22 C22         3.9189   31.3426    7.9086 C.2         1 MOL       0.0553
     23 C23         7.9092   27.9587    3.0928 C.ar        1 MOL      -0.0571
     24 C24         7.5035   27.2781    1.9308 C.ar        1 MOL      -0.0632
     25 C25         8.0017   27.6678    0.6744 C.ar        1 MOL      -0.0635
     26 C26         8.9093   28.7383    0.5813 C.ar        1 MOL      -0.0632
     27 C27         9.3234   29.4109    1.7446 C.ar        1 MOL      -0.0571
     28 O28         3.0952   31.7978    6.9354 O.co2       1 MOL      -0.5638
     29 O29         3.9863   32.0931    9.0326 O.co2       1 MOL      -0.5638
     30 H1         11.1933   27.5602    4.6754 H           1 MOL       0.2176
     31 H2          6.0843   25.6561    7.9924 H           1 MOL       0.2187
     32 H3          9.5759   23.4925    6.1944 H           1 MOL       0.0849
     33 H4         10.9454   25.2117    5.1425 H           1 MOL       0.0586
     34 H5         11.0314   29.4343    7.0511 H           1 MOL       0.0537
     35 H6         10.4903   31.7863    7.2096 H           1 MOL       0.0591
     36 H7          9.1767   32.8514    5.4687 H           1 MOL       0.0524
     37 H8          8.3934   31.5706    3.5873 H           1 MOL       0.0594
     38 H9          6.4891   27.9607    9.6009 H           1 MOL       0.0545
     39 H10         5.3729   30.0710    9.7817 H           1 MOL       0.0622
     40 H11         4.1251   29.7416    5.7527 H           1 MOL       0.0622
     41 H12         5.2682   27.6424    5.5849 H           1 MOL       0.0545
     42 H13         7.5070   27.6806    3.9874 H           1 MOL       0.0606
     43 H14         6.8362   26.5046    1.9948 H           1 MOL       0.0613
     44 H15         7.7019   27.1766   -0.1714 H           1 MOL       0.0603
     45 H16         9.2713   29.0258   -0.3312 H           1 MOL       0.0613
     46 H17         9.9941   30.1800    1.6555 H           1 MOL       0.0606
@<TRIPOS>BOND
     1     1     5  ar
     2     1     6  ar
     3     6     2  ar
     4     2     7  ar
     5     7     3   1
     6     3     9   1
     7     6     4   1
     8     4    16   1
     9     5     8  ar
    10     7     8  ar
    11     9    10  ar
    12     9    14  ar
    13    10    11  ar
    14    11    12  ar
    15    12    13  ar
    16    13    14  ar
    17    14    15   1
    18    15    23  ar
    19    15    27  ar
    20    16    17  ar
    21    16    21  ar
    22    17    18  ar
    23    18    19  ar
    24    19    20  ar
    25    19    22   1
    26    20    21  ar
    27    22    28  ar
    28    22    29  ar
    29    23    24  ar
    30    24    25  ar
    31    25    26  ar
    32    26    27  ar
    33     3    30   1
    34     4    31   1
    35     5    32   1
    36     8    33   1
    37    10    34   1
    38    11    35   1
    39    12    36   1
    40    13    37   1
    41    17    38   1
    42    18    39   1
    43    20    40   1
    44    21    41   1
    45    23    42   1
    46    24    43   1
    47    25    44   1
    48    26    45   1
    49    27    46   1
@<TRIPOS>SUBSTRUCTURE
     1  MOL      5

