@<TRIPOS>MOLECULE
3uo4_ligand_089
    46    49
SMALL
GAST_HUCK
****
This file was generated by PARSER (from files_GN.cpp)

@<TRIPOS>ATOM
      1 N01         5.3199   33.5646   -0.6384 N.ar        1 MOL      -0.2685
      2 N02         5.1050   32.0474    1.1255 N.ar        1 MOL      -0.2339
      3 N03         6.2533   29.9581    1.0586 N.pl3       1 MOL      -0.2537
      4 N04         3.9537   34.1644    1.1262 N.pl3       1 MOL      -0.2427
      5 C05         6.1283   32.7102   -1.3157 C.ar        1 MOL       0.0015
      6 C06         4.7967   33.2552    0.5784 C.ar        1 MOL       0.1962
      7 C07         5.9099   31.1476    0.5060 C.ar        1 MOL       0.1353
      8 C08         6.4293   31.4564   -0.7632 C.ar        1 MOL      -0.0013
      9 C09         5.8980   29.5120    2.2919 C.ar        1 MOL       0.0745
     10 C10         4.7534   28.6840    2.3003 C.ar        1 MOL      -0.0363
     11 C11         4.2579   28.1619    3.5030 C.ar        1 MOL      -0.0708
     12 C12         4.9339   28.4203    4.7026 C.ar        1 MOL      -0.0722
     13 C13         6.1029   29.1975    4.6925 C.ar        1 MOL      -0.0625
     14 C14         6.6115   29.7930    3.5022 C.ar        1 MOL       0.0075
     15 C15         7.7575   30.6670    3.5858 C.ar        1 MOL      -0.0223
     16 C16         3.2477   34.0866    2.2947 C.ar        1 MOL       0.0684
     17 C17         2.0037   34.7533    2.3515 C.ar        1 MOL      -0.0343
     18 C18         1.2221   34.7372    3.5244 C.ar        1 MOL      -0.0571
     19 C19         1.6678   34.0563    4.6810 C.ar        1 MOL      -0.0016
     20 C20         2.9291   33.4161    4.6312 C.ar        1 MOL      -0.0571
     21 C21         3.7086   33.4363    3.4595 C.ar        1 MOL      -0.0343
     22 C22         0.8823   34.0306    5.8635 C.2         1 MOL       0.0553
     23 C23         8.1086   31.3078    4.8127 C.ar        1 MOL      -0.0571
     24 C24         9.1641   32.2385    4.8877 C.ar        1 MOL      -0.0632
     25 C25         9.8736   32.5903    3.7287 C.ar        1 MOL      -0.0635
     26 C26         9.5673   31.9540    2.5085 C.ar        1 MOL      -0.0632
     27 C27         8.5627   30.9707    2.4532 C.ar        1 MOL      -0.0571
     28 O28         1.2864   33.3641    6.9663 O.co2       1 MOL      -0.5638
     29 O29        -0.3073   34.6776    5.9516 O.co2       1 MOL      -0.5638
     30 H1          6.7912   29.3604    0.5114 H           1 MOL       0.2176
     31 H2          3.7577   34.9329    0.5643 H           1 MOL       0.2187
     32 H3          6.4946   32.9747   -2.2296 H           1 MOL       0.0849
     33 H4          7.0398   30.8036   -1.2680 H           1 MOL       0.0586
     34 H5          4.2566   28.4737    1.4314 H           1 MOL       0.0537
     35 H6          3.4120   27.5859    3.4993 H           1 MOL       0.0591
     36 H7          4.5801   28.0351    5.5828 H           1 MOL       0.0524
     37 H8          6.5750   29.3165    5.5893 H           1 MOL       0.0594
     38 H9          1.6451   35.2482    1.5331 H           1 MOL       0.0545
     39 H10         0.3270   35.2294    3.5191 H           1 MOL       0.0622
     40 H11         3.3024   32.9315    5.4509 H           1 MOL       0.0622
     41 H12         4.6294   32.9958    3.4805 H           1 MOL       0.0545
     42 H13         7.5785   31.1390    5.6675 H           1 MOL       0.0606
     43 H14         9.3939   32.6940    5.7735 H           1 MOL       0.0613
     44 H15        10.6114   33.3078    3.7711 H           1 MOL       0.0603
     45 H16        10.0892   32.1948    1.6652 H           1 MOL       0.0613
     46 H17         8.4346   30.4884    1.5659 H           1 MOL       0.0606
@<TRIPOS>BOND
     1     1     5  ar
     2     1     6  ar
     3     6     2  ar
     4     2     7  ar
     5     7     3   1
     6     3     9   1
     7     6     4   1
     8     4    16   1
     9     5     8  ar
    10     7     8  ar
    11     9    10  ar
    12     9    14  ar
    13    10    11  ar
    14    11    12  ar
    15    12    13  ar
    16    13    14  ar
    17    14    15   1
    18    15    23  ar
    19    15    27  ar
    20    16    17  ar
    21    16    21  ar
    22    17    18  ar
    23    18    19  ar
    24    19    20  ar
    25    19    22   1
    26    20    21  ar
    27    22    28  ar
    28    22    29  ar
    29    23    24  ar
    30    24    25  ar
    31    25    26  ar
    32    26    27  ar
    33     3    30   1
    34     4    31   1
    35     5    32   1
    36     8    33   1
    37    10    34   1
    38    11    35   1
    39    12    36   1
    40    13    37   1
    41    17    38   1
    42    18    39   1
    43    20    40   1
    44    21    41   1
    45    23    42   1
    46    24    43   1
    47    25    44   1
    48    26    45   1
    49    27    46   1
@<TRIPOS>SUBSTRUCTURE
     1  MOL      5

