@<TRIPOS>MOLECULE
3uo4_ligand_052
    46    49
SMALL
GAST_HUCK
****
This file was generated by PARSER (from files_GN.cpp)

@<TRIPOS>ATOM
      1 N01         4.0623   31.9310   -0.9962 N.ar        1 MOL      -0.2685
      2 N02         4.1303   31.0576    1.1706 N.ar        1 MOL      -0.2339
      3 N03         5.3554   29.0539    1.6576 N.pl3       1 MOL      -0.2537
      4 N04         2.9108   33.0668    0.6696 N.pl3       1 MOL      -0.2427
      5 C05         4.8348   30.9105   -1.4556 C.ar        1 MOL       0.0015
      6 C06         3.6889   32.0190    0.3085 C.ar        1 MOL       0.1962
      7 C07         4.9051   29.9995    0.7878 C.ar        1 MOL       0.1353
      8 C08         5.2814   29.9082   -0.5707 C.ar        1 MOL      -0.0013
      9 C09         5.1191   28.9623    3.0060 C.ar        1 MOL       0.0745
     10 C10         3.8447   29.2447    3.5517 C.ar        1 MOL      -0.0363
     11 C11         3.6125   29.2082    4.9394 C.ar        1 MOL      -0.0708
     12 C12         4.6441   28.8150    5.8070 C.ar        1 MOL      -0.0722
     13 C13         5.8851   28.4280    5.2834 C.ar        1 MOL      -0.0625
     14 C14         6.1321   28.4952    3.8899 C.ar        1 MOL       0.0075
     15 C15         7.3943   28.0779    3.4244 C.ar        1 MOL      -0.0223
     16 C16         2.3447   33.3284    1.8849 C.ar        1 MOL       0.0684
     17 C17         1.9282   32.3160    2.7782 C.ar        1 MOL      -0.0343
     18 C18         1.4031   32.6342    4.0440 C.ar        1 MOL      -0.0571
     19 C19         1.1881   33.9801    4.4113 C.ar        1 MOL      -0.0016
     20 C20         1.5045   34.9964    3.4800 C.ar        1 MOL      -0.0571
     21 C21         2.0997   34.6704    2.2441 C.ar        1 MOL      -0.0343
     22 C22         0.6079   34.2943    5.6526 C.2         1 MOL       0.0553
     23 C23         7.7209   26.6991    3.4377 C.ar        1 MOL      -0.0571
     24 C24         8.9787   26.2722    2.9811 C.ar        1 MOL      -0.0632
     25 C25         9.9223   27.2120    2.5265 C.ar        1 MOL      -0.0635
     26 C26         9.6032   28.5845    2.5214 C.ar        1 MOL      -0.0632
     27 C27         8.3403   29.0186    2.9601 C.ar        1 MOL      -0.0571
     28 O28        -0.5670   34.9709    5.6958 O.co2       1 MOL      -0.5638
     29 O29         1.0386   33.6966    6.7899 O.co2       1 MOL      -0.5638
     30 H1          5.9994   28.4278    1.2955 H           1 MOL       0.2176
     31 H2          2.7756   33.7415   -0.0113 H           1 MOL       0.2187
     32 H3          5.0760   30.8695   -2.4441 H           1 MOL       0.0849
     33 H4          5.8545   29.1382   -0.9183 H           1 MOL       0.0586
     34 H5          3.0653   29.4554    2.9366 H           1 MOL       0.0537
     35 H6          2.6952   29.4567    5.3157 H           1 MOL       0.0591
     36 H7          4.4866   28.7906    6.8132 H           1 MOL       0.0524
     37 H8          6.6048   28.0965    5.9300 H           1 MOL       0.0594
     38 H9          1.9751   31.3403    2.5020 H           1 MOL       0.0545
     39 H10         1.1452   31.8766    4.6743 H           1 MOL       0.0622
     40 H11         1.3274   35.9790    3.7017 H           1 MOL       0.0622
     41 H12         2.3600   35.4271    1.6095 H           1 MOL       0.0545
     42 H13         7.0445   26.0066    3.7660 H           1 MOL       0.0606
     43 H14         9.2036   25.2783    2.9799 H           1 MOL       0.0613
     44 H15        10.8369   26.9001    2.2043 H           1 MOL       0.0603
     45 H16        10.2886   29.2665    2.2000 H           1 MOL       0.0613
     46 H17         8.1218   30.0185    2.9487 H           1 MOL       0.0606
@<TRIPOS>BOND
     1     1     5  ar
     2     1     6  ar
     3     6     2  ar
     4     2     7  ar
     5     7     3   1
     6     3     9   1
     7     6     4   1
     8     4    16   1
     9     5     8  ar
    10     7     8  ar
    11     9    10  ar
    12     9    14  ar
    13    10    11  ar
    14    11    12  ar
    15    12    13  ar
    16    13    14  ar
    17    14    15   1
    18    15    23  ar
    19    15    27  ar
    20    16    17  ar
    21    16    21  ar
    22    17    18  ar
    23    18    19  ar
    24    19    20  ar
    25    19    22   1
    26    20    21  ar
    27    22    28  ar
    28    22    29  ar
    29    23    24  ar
    30    24    25  ar
    31    25    26  ar
    32    26    27  ar
    33     3    30   1
    34     4    31   1
    35     5    32   1
    36     8    33   1
    37    10    34   1
    38    11    35   1
    39    12    36   1
    40    13    37   1
    41    17    38   1
    42    18    39   1
    43    20    40   1
    44    21    41   1
    45    23    42   1
    46    24    43   1
    47    25    44   1
    48    26    45   1
    49    27    46   1
@<TRIPOS>SUBSTRUCTURE
     1  MOL      5

