@<TRIPOS>MOLECULE
3uo4_ligand_032
    46    49
SMALL
GAST_HUCK
****
This file was generated by PARSER (from files_GN.cpp)

@<TRIPOS>ATOM
      1 N01         5.9269   27.1103    2.0996 N.ar        1 MOL      -0.2685
      2 N02         4.8452   29.1677    1.9189 N.ar        1 MOL      -0.2339
      3 N03         4.5973   30.2587   -0.1784 N.pl3       1 MOL      -0.2537
      4 N04         5.0551   28.0638    4.0313 N.pl3       1 MOL      -0.2427
      5 C05         6.1868   27.1024    0.7632 C.ar        1 MOL       0.0015
      6 C06         5.2556   28.1336    2.6920 C.ar        1 MOL       0.1962
      7 C07         5.0613   29.2341    0.5740 C.ar        1 MOL       0.1353
      8 C08         5.7456   28.1675   -0.0426 C.ar        1 MOL      -0.0013
      9 C09         3.8960   31.3399    0.2806 C.ar        1 MOL       0.0745
     10 C10         4.4060   32.0967    1.3639 C.ar        1 MOL      -0.0363
     11 C11         3.6974   33.2019    1.8614 C.ar        1 MOL      -0.0708
     12 C12         2.4830   33.5852    1.2727 C.ar        1 MOL      -0.0722
     13 C13         1.9690   32.8502    0.1891 C.ar        1 MOL      -0.0625
     14 C14         2.6607   31.7231   -0.3212 C.ar        1 MOL       0.0075
     15 C15         2.0560   30.9381   -1.3415 C.ar        1 MOL      -0.0223
     16 C16         4.4044   28.9401    4.8577 C.ar        1 MOL       0.0684
     17 C17         4.7247   28.8831    6.2344 C.ar        1 MOL      -0.0343
     18 C18         4.1061   29.7393    7.1644 C.ar        1 MOL      -0.0571
     19 C19         3.1301   30.6741    6.7479 C.ar        1 MOL      -0.0016
     20 C20         2.7886   30.7169    5.3774 C.ar        1 MOL      -0.0571
     21 C21         3.4086   29.8593    4.4517 C.ar        1 MOL      -0.0343
     22 C22         2.4899   31.5351    7.6744 C.2         1 MOL       0.0553
     23 C23         0.8375   30.2673   -1.0852 C.ar        1 MOL      -0.0571
     24 C24         0.2562   29.4397   -2.0646 C.ar        1 MOL      -0.0632
     25 C25         0.8813   29.2779   -3.3123 C.ar        1 MOL      -0.0635
     26 C26         2.0861   29.9497   -3.5828 C.ar        1 MOL      -0.0632
     27 C27         2.6710   30.7768   -2.6047 C.ar        1 MOL      -0.0571
     28 O28         3.0293   31.8239    8.8820 O.co2       1 MOL      -0.5638
     29 O29         1.3499   32.1986    7.3649 O.co2       1 MOL      -0.5638
     30 H1          4.6971   30.1716   -1.1317 H           1 MOL       0.2176
     31 H2          5.4810   27.3115    4.4767 H           1 MOL       0.2187
     32 H3          6.7053   26.3225    0.3496 H           1 MOL       0.0849
     33 H4          5.9324   28.1706   -1.0499 H           1 MOL       0.0586
     34 H5          5.2946   31.8410    1.7933 H           1 MOL       0.0537
     35 H6          4.0672   33.7275    2.6577 H           1 MOL       0.0591
     36 H7          1.9688   34.3881    1.6366 H           1 MOL       0.0524
     37 H8          1.0759   33.1394   -0.2172 H           1 MOL       0.0594
     38 H9          5.4306   28.2177    6.5740 H           1 MOL       0.0545
     39 H10         4.3763   29.6684    8.1524 H           1 MOL       0.0622
     40 H11         2.0743   31.3658    5.0360 H           1 MOL       0.0622
     41 H12         3.0969   29.8999    3.4808 H           1 MOL       0.0545
     42 H13         0.3726   30.3597   -0.1787 H           1 MOL       0.0606
     43 H14        -0.6217   28.9507   -1.8626 H           1 MOL       0.0613
     44 H15         0.4599   28.6754   -4.0209 H           1 MOL       0.0603
     45 H16         2.5404   29.8354   -4.4941 H           1 MOL       0.0613
     46 H17         3.5476   31.2560   -2.8238 H           1 MOL       0.0606
@<TRIPOS>BOND
     1     1     5  ar
     2     1     6  ar
     3     6     2  ar
     4     2     7  ar
     5     7     3   1
     6     3     9   1
     7     6     4   1
     8     4    16   1
     9     5     8  ar
    10     7     8  ar
    11     9    10  ar
    12     9    14  ar
    13    10    11  ar
    14    11    12  ar
    15    12    13  ar
    16    13    14  ar
    17    14    15   1
    18    15    23  ar
    19    15    27  ar
    20    16    17  ar
    21    16    21  ar
    22    17    18  ar
    23    18    19  ar
    24    19    20  ar
    25    19    22   1
    26    20    21  ar
    27    22    28  ar
    28    22    29  ar
    29    23    24  ar
    30    24    25  ar
    31    25    26  ar
    32    26    27  ar
    33     3    30   1
    34     4    31   1
    35     5    32   1
    36     8    33   1
    37    10    34   1
    38    11    35   1
    39    12    36   1
    40    13    37   1
    41    17    38   1
    42    18    39   1
    43    20    40   1
    44    21    41   1
    45    23    42   1
    46    24    43   1
    47    25    44   1
    48    26    45   1
    49    27    46   1
@<TRIPOS>SUBSTRUCTURE
     1  MOL      5

