@<TRIPOS>MOLECULE
3uo4_ligand_054
    46    49
SMALL
GAST_HUCK
****
This file was generated by PARSER (from files_GN.cpp)

@<TRIPOS>ATOM
      1 N01         6.0391   26.2690    3.5199 N.ar        1 MOL      -0.2685
      2 N02         7.3028   27.8769    4.6387 N.ar        1 MOL      -0.2339
      3 N03         8.2387   29.7385    3.5193 N.pl3       1 MOL      -0.2537
      4 N04         6.5093   25.9811    5.8057 N.pl3       1 MOL      -0.2427
      5 C05         6.1324   26.9685    2.3622 C.ar        1 MOL       0.0015
      6 C06         6.5986   26.7152    4.6760 C.ar        1 MOL       0.1962
      7 C07         7.4777   28.6189    3.5212 C.ar        1 MOL       0.1353
      8 C08         6.8612   28.1732    2.3280 C.ar        1 MOL      -0.0013
      9 C09         8.9462   30.2628    4.5734 C.ar        1 MOL       0.0745
     10 C10         8.8234   31.6463    4.7570 C.ar        1 MOL      -0.0363
     11 C11         9.4837   32.3043    5.8037 C.ar        1 MOL      -0.0708
     12 C12        10.2479   31.5641    6.7169 C.ar        1 MOL      -0.0722
     13 C13        10.4240   30.1822    6.5284 C.ar        1 MOL      -0.0625
     14 C14         9.8099   29.5173    5.4350 C.ar        1 MOL       0.0075
     15 C15        10.1063   28.1427    5.2086 C.ar        1 MOL      -0.0223
     16 C16         6.9132   26.3832    7.0393 C.ar        1 MOL       0.0684
     17 C17         6.4529   27.5989    7.6080 C.ar        1 MOL      -0.0343
     18 C18         6.8955   28.0034    8.8790 C.ar        1 MOL      -0.0571
     19 C19         7.8374   27.2221    9.5893 C.ar        1 MOL      -0.0016
     20 C20         8.3009   26.0152    9.0119 C.ar        1 MOL      -0.0571
     21 C21         7.8227   25.5888    7.7611 C.ar        1 MOL      -0.0343
     22 C22         8.3034   27.6421   10.8463 C.2         1 MOL       0.0553
     23 C23        10.4132   27.6787    3.9071 C.ar        1 MOL      -0.0571
     24 C24        10.5962   26.3040    3.6654 C.ar        1 MOL      -0.0632
     25 C25        10.4810   25.3785    4.7167 C.ar        1 MOL      -0.0635
     26 C26        10.2269   25.8349    6.0246 C.ar        1 MOL      -0.0632
     27 C27        10.0599   27.2097    6.2702 C.ar        1 MOL      -0.0571
     28 O28         9.6283   27.7503   11.0975 O.co2       1 MOL      -0.5638
     29 O29         7.4423   27.7726   11.8830 O.co2       1 MOL      -0.5638
     30 H1          8.2021   30.2813    2.7154 H           1 MOL       0.2176
     31 H2          6.1902   25.0605    5.7129 H           1 MOL       0.2187
     32 H3          5.6864   26.6105    1.5209 H           1 MOL       0.0849
     33 H4          6.9512   28.6991    1.4548 H           1 MOL       0.0586
     34 H5          8.2218   32.1975    4.1399 H           1 MOL       0.0537
     35 H6          9.3844   33.3096    5.9161 H           1 MOL       0.0591
     36 H7         10.6926   32.0396    7.5070 H           1 MOL       0.0524
     37 H8         11.0281   29.6779    7.1834 H           1 MOL       0.0594
     38 H9          5.7994   28.1964    7.0985 H           1 MOL       0.0545
     39 H10         6.5488   28.8811    9.2709 H           1 MOL       0.0622
     40 H11         8.9877   25.4377    9.4957 H           1 MOL       0.0622
     41 H12         8.1808   24.7251    7.3517 H           1 MOL       0.0545
     42 H13        10.4971   28.3348    3.1212 H           1 MOL       0.0606
     43 H14        10.8152   25.9731    2.7215 H           1 MOL       0.0613
     44 H15        10.6192   24.3816    4.5408 H           1 MOL       0.0603
     45 H16        10.1571   25.1646    6.7986 H           1 MOL       0.0613
     46 H17         9.8755   27.5192    7.2265 H           1 MOL       0.0606
@<TRIPOS>BOND
     1     1     5  ar
     2     1     6  ar
     3     6     2  ar
     4     2     7  ar
     5     7     3   1
     6     3     9   1
     7     6     4   1
     8     4    16   1
     9     5     8  ar
    10     7     8  ar
    11     9    10  ar
    12     9    14  ar
    13    10    11  ar
    14    11    12  ar
    15    12    13  ar
    16    13    14  ar
    17    14    15   1
    18    15    23  ar
    19    15    27  ar
    20    16    17  ar
    21    16    21  ar
    22    17    18  ar
    23    18    19  ar
    24    19    20  ar
    25    19    22   1
    26    20    21  ar
    27    22    28  ar
    28    22    29  ar
    29    23    24  ar
    30    24    25  ar
    31    25    26  ar
    32    26    27  ar
    33     3    30   1
    34     4    31   1
    35     5    32   1
    36     8    33   1
    37    10    34   1
    38    11    35   1
    39    12    36   1
    40    13    37   1
    41    17    38   1
    42    18    39   1
    43    20    40   1
    44    21    41   1
    45    23    42   1
    46    24    43   1
    47    25    44   1
    48    26    45   1
    49    27    46   1
@<TRIPOS>SUBSTRUCTURE
     1  MOL      5

