@<TRIPOS>MOLECULE
3uo4_ligand_090
    46    49
SMALL
GAST_HUCK
****
This file was generated by PARSER (from files_GN.cpp)

@<TRIPOS>ATOM
      1 N01         8.2777   29.7606    2.9025 N.ar        1 MOL      -0.2685
      2 N02         6.7818   30.0399    4.6746 N.ar        1 MOL      -0.2339
      3 N03         7.2944   29.2005    6.8518 N.pl3       1 MOL      -0.2537
      4 N04         6.2315   30.7658    2.4572 N.pl3       1 MOL      -0.2427
      5 C05         9.1812   29.1683    3.7264 C.ar        1 MOL       0.0015
      6 C06         7.0832   30.2201    3.3580 C.ar        1 MOL       0.1962
      7 C07         7.6302   29.4415    5.5573 C.ar        1 MOL       0.1353
      8 C08         8.8875   29.0023    5.0902 C.ar        1 MOL      -0.0013
      9 C09         6.1010   29.4255    7.4902 C.ar        1 MOL       0.0745
     10 C10         6.2177   29.7770    8.8537 C.ar        1 MOL      -0.0363
     11 C11         5.0884   30.1096    9.6186 C.ar        1 MOL      -0.0708
     12 C12         3.8137   30.0634    9.0332 C.ar        1 MOL      -0.0722
     13 C13         3.6722   29.6444    7.7003 C.ar        1 MOL      -0.0625
     14 C14         4.8010   29.2898    6.9110 C.ar        1 MOL       0.0075
     15 C15         4.5855   28.7544    5.6033 C.ar        1 MOL      -0.0223
     16 C16         4.9940   31.3027    2.6763 C.ar        1 MOL       0.0684
     17 C17         3.9974   31.1016    1.6964 C.ar        1 MOL      -0.0343
     18 C18         2.7108   31.6554    1.8468 C.ar        1 MOL      -0.0571
     19 C19         2.3816   32.4359    2.9791 C.ar        1 MOL      -0.0016
     20 C20         3.3906   32.6550    3.9503 C.ar        1 MOL      -0.0571
     21 C21         4.6735   32.1035    3.7975 C.ar        1 MOL      -0.0343
     22 C22         1.0869   32.9975    3.1386 C.2         1 MOL       0.0553
     23 C23         3.5666   29.2765    4.7569 C.ar        1 MOL      -0.0571
     24 C24         3.3993   28.8023    3.4423 C.ar        1 MOL      -0.0632
     25 C25         4.2458   27.7920    2.9437 C.ar        1 MOL      -0.0635
     26 C26         5.2567   27.2625    3.7607 C.ar        1 MOL      -0.0632
     27 C27         5.4022   27.7151    5.0873 C.ar        1 MOL      -0.0571
     28 O28         0.5735   33.2721    4.3651 O.co2       1 MOL      -0.5638
     29 O29         0.2722   33.2519    2.0828 O.co2       1 MOL      -0.5638
     30 H1          8.0183   28.8695    7.4139 H           1 MOL       0.2176
     31 H2          6.5114   30.7173    1.5305 H           1 MOL       0.2187
     32 H3         10.0687   28.8307    3.3453 H           1 MOL       0.0849
     33 H4          9.5567   28.5434    5.7141 H           1 MOL       0.0586
     34 H5          7.1403   29.8281    9.2964 H           1 MOL       0.0537
     35 H6          5.1848   30.3822   10.5993 H           1 MOL       0.0591
     36 H7          2.9902   30.3000    9.5888 H           1 MOL       0.0524
     37 H8          2.7254   29.5712    7.3295 H           1 MOL       0.0594
     38 H9          4.2039   30.5457    0.8635 H           1 MOL       0.0545
     39 H10         2.0112   31.4678    1.1188 H           1 MOL       0.0622
     40 H11         3.2046   33.2357    4.7727 H           1 MOL       0.0622
     41 H12         5.3805   32.3145    4.4980 H           1 MOL       0.0545
     42 H13         2.9572   30.0316    5.0812 H           1 MOL       0.0606
     43 H14         2.6686   29.1906    2.8575 H           1 MOL       0.0613
     44 H15         4.1192   27.4456    1.9894 H           1 MOL       0.0603
     45 H16         5.8713   26.5337    3.4056 H           1 MOL       0.0613
     46 H17         6.1210   27.2833    5.6706 H           1 MOL       0.0606
@<TRIPOS>BOND
     1     1     5  ar
     2     1     6  ar
     3     6     2  ar
     4     2     7  ar
     5     7     3   1
     6     3     9   1
     7     6     4   1
     8     4    16   1
     9     5     8  ar
    10     7     8  ar
    11     9    10  ar
    12     9    14  ar
    13    10    11  ar
    14    11    12  ar
    15    12    13  ar
    16    13    14  ar
    17    14    15   1
    18    15    23  ar
    19    15    27  ar
    20    16    17  ar
    21    16    21  ar
    22    17    18  ar
    23    18    19  ar
    24    19    20  ar
    25    19    22   1
    26    20    21  ar
    27    22    28  ar
    28    22    29  ar
    29    23    24  ar
    30    24    25  ar
    31    25    26  ar
    32    26    27  ar
    33     3    30   1
    34     4    31   1
    35     5    32   1
    36     8    33   1
    37    10    34   1
    38    11    35   1
    39    12    36   1
    40    13    37   1
    41    17    38   1
    42    18    39   1
    43    20    40   1
    44    21    41   1
    45    23    42   1
    46    24    43   1
    47    25    44   1
    48    26    45   1
    49    27    46   1
@<TRIPOS>SUBSTRUCTURE
     1  MOL      5

