@<TRIPOS>MOLECULE
3uo4_ligand_041
    46    49
SMALL
GAST_HUCK
****
This file was generated by PARSER (from files_GN.cpp)

@<TRIPOS>ATOM
      1 N01         7.0734   34.1161   -3.1363 N.ar        1 MOL      -0.2685
      2 N02         4.9161   34.9930   -3.3356 N.ar        1 MOL      -0.2339
      3 N03         4.3134   36.5574   -4.9301 N.pl3       1 MOL      -0.2537
      4 N04         5.4993   33.4705   -1.5762 N.pl3       1 MOL      -0.2427
      5 C05         7.4927   34.8372   -4.2063 C.ar        1 MOL       0.0015
      6 C06         5.7895   34.1715   -2.6926 C.ar        1 MOL       0.1962
      7 C07         5.2665   35.7680   -4.3903 C.ar        1 MOL       0.1353
      8 C08         6.5934   35.6998   -4.8526 C.ar        1 MOL      -0.0013
      9 C09         4.4633   37.3983   -5.9942 C.ar        1 MOL       0.0745
     10 C10         5.4638   38.3956   -5.9807 C.ar        1 MOL      -0.0363
     11 C11         5.6026   39.2773   -7.0662 C.ar        1 MOL      -0.0708
     12 C12         4.7385   39.1715   -8.1701 C.ar        1 MOL      -0.0722
     13 C13         3.7421   38.1792   -8.1934 C.ar        1 MOL      -0.0625
     14 C14         3.5998   37.2872   -7.1090 C.ar        1 MOL       0.0075
     15 C15         2.6081   36.2788   -7.1765 C.ar        1 MOL      -0.0223
     16 C16         4.3239   33.5181   -0.9130 C.ar        1 MOL       0.0684
     17 C17         4.1440   34.4953    0.0785 C.ar        1 MOL      -0.0343
     18 C18         2.9507   34.5491    0.8209 C.ar        1 MOL      -0.0571
     19 C19         1.9339   33.6043    0.5910 C.ar        1 MOL      -0.0016
     20 C20         2.1178   32.6102   -0.3945 C.ar        1 MOL      -0.0571
     21 C21         3.3089   32.5744   -1.1452 C.ar        1 MOL      -0.0343
     22 C22         0.7485   33.6467    1.3434 C.2         1 MOL       0.0553
     23 C23         2.9736   34.9200   -7.3302 C.ar        1 MOL      -0.0571
     24 C24         1.9794   33.9257   -7.4128 C.ar        1 MOL      -0.0632
     25 C25         0.6235   34.2791   -7.3303 C.ar        1 MOL      -0.0635
     26 C26         0.2539   35.6222   -7.1517 C.ar        1 MOL      -0.0632
     27 C27         1.2409   36.6244   -7.0758 C.ar        1 MOL      -0.0571
     28 O28        -0.0655   34.7354    1.3235 O.co2       1 MOL      -0.5638
     29 O29         0.4207   32.6098    2.1631 O.co2       1 MOL      -0.5638
     30 H1          3.3990   36.4331   -4.5989 H           1 MOL       0.2176
     31 H2          6.2484   33.0256   -1.1250 H           1 MOL       0.2187
     32 H3          8.4701   34.7783   -4.5187 H           1 MOL       0.0849
     33 H4          6.9203   36.2553   -5.6605 H           1 MOL       0.0586
     34 H5          6.0914   38.4900   -5.1780 H           1 MOL       0.0537
     35 H6          6.3250   40.0011   -7.0561 H           1 MOL       0.0591
     36 H7          4.8385   39.8129   -8.9662 H           1 MOL       0.0524
     37 H8          3.1348   38.1055   -9.0143 H           1 MOL       0.0594
     38 H9          4.8790   35.1884    0.2755 H           1 MOL       0.0545
     39 H10         2.8462   35.2724    1.5435 H           1 MOL       0.0622
     40 H11         1.3860   31.9208   -0.5820 H           1 MOL       0.0622
     41 H12         3.4297   31.8393   -1.8528 H           1 MOL       0.0545
     42 H13         3.9568   34.6505   -7.3914 H           1 MOL       0.0606
     43 H14         2.2519   32.9496   -7.5368 H           1 MOL       0.0613
     44 H15        -0.0944   33.5581   -7.3955 H           1 MOL       0.0603
     45 H16        -0.7312   35.8789   -7.0772 H           1 MOL       0.0613
     46 H17         0.9603   37.5961   -6.9396 H           1 MOL       0.0606
@<TRIPOS>BOND
     1     1     5  ar
     2     1     6  ar
     3     6     2  ar
     4     2     7  ar
     5     7     3   1
     6     3     9   1
     7     6     4   1
     8     4    16   1
     9     5     8  ar
    10     7     8  ar
    11     9    10  ar
    12     9    14  ar
    13    10    11  ar
    14    11    12  ar
    15    12    13  ar
    16    13    14  ar
    17    14    15   1
    18    15    23  ar
    19    15    27  ar
    20    16    17  ar
    21    16    21  ar
    22    17    18  ar
    23    18    19  ar
    24    19    20  ar
    25    19    22   1
    26    20    21  ar
    27    22    28  ar
    28    22    29  ar
    29    23    24  ar
    30    24    25  ar
    31    25    26  ar
    32    26    27  ar
    33     3    30   1
    34     4    31   1
    35     5    32   1
    36     8    33   1
    37    10    34   1
    38    11    35   1
    39    12    36   1
    40    13    37   1
    41    17    38   1
    42    18    39   1
    43    20    40   1
    44    21    41   1
    45    23    42   1
    46    24    43   1
    47    25    44   1
    48    26    45   1
    49    27    46   1
@<TRIPOS>SUBSTRUCTURE
     1  MOL      5

