@<TRIPOS>MOLECULE
3uo4_ligand_084
    46    49
SMALL
GAST_HUCK
****
This file was generated by PARSER (from files_GN.cpp)

@<TRIPOS>ATOM
      1 N01         4.0546   29.3336    2.1800 N.ar        1 MOL      -0.2685
      2 N02         3.6209   29.9350    4.3999 N.ar        1 MOL      -0.2339
      3 N03         4.5552   28.5667    6.1749 N.pl3       1 MOL      -0.2537
      4 N04         2.9007   31.2616    2.4764 N.pl3       1 MOL      -0.2427
      5 C05         4.7111   28.2142    2.5651 C.ar        1 MOL       0.0015
      6 C06         3.4934   30.1969    3.0644 C.ar        1 MOL       0.1962
      7 C07         4.3057   28.8465    4.8691 C.ar        1 MOL       0.1353
      8 C08         4.8611   27.9467    3.9321 C.ar        1 MOL      -0.0013
      9 C09         4.3859   29.2667    7.3429 C.ar        1 MOL       0.0745
     10 C10         4.3235   28.4671    8.5071 C.ar        1 MOL      -0.0363
     11 C11         4.2112   29.0307    9.7886 C.ar        1 MOL      -0.0708
     12 C12         4.1978   30.4258    9.9281 C.ar        1 MOL      -0.0722
     13 C13         4.2947   31.2482    8.7986 C.ar        1 MOL      -0.0625
     14 C14         4.3988   30.6896    7.4970 C.ar        1 MOL       0.0075
     15 C15         4.5663   31.5825    6.4108 C.ar        1 MOL      -0.0223
     16 C16         2.2021   32.3238    2.9700 C.ar        1 MOL       0.0684
     17 C17         1.5265   32.3573    4.2100 C.ar        1 MOL      -0.0343
     18 C18         0.7782   33.4843    4.5928 C.ar        1 MOL      -0.0571
     19 C19         0.6822   34.6210    3.7519 C.ar        1 MOL      -0.0016
     20 C20         1.3535   34.5844    2.5086 C.ar        1 MOL      -0.0571
     21 C21         2.0977   33.4518    2.1249 C.ar        1 MOL      -0.0343
     22 C22        -0.1064   35.7442    4.1171 C.2         1 MOL       0.0553
     23 C23         5.4541   31.2798    5.3494 C.ar        1 MOL      -0.0571
     24 C24         5.4341   32.0444    4.1730 C.ar        1 MOL      -0.0632
     25 C25         4.5962   33.1754    4.0814 C.ar        1 MOL      -0.0635
     26 C26         3.8158   33.5652    5.1825 C.ar        1 MOL      -0.0632
     27 C27         3.7762   32.7577    6.3311 C.ar        1 MOL      -0.0571
     28 O28        -0.9249   35.7105    5.1942 O.co2       1 MOL      -0.5638
     29 O29        -0.1369   36.8670    3.3519 O.co2       1 MOL      -0.5638
     30 H1          4.9599   27.6928    6.3082 H           1 MOL       0.2176
     31 H2          3.0006   31.2747    1.5115 H           1 MOL       0.2187
     32 H3          5.1045   27.5840    1.8610 H           1 MOL       0.0849
     33 H4          5.3938   27.1197    4.2278 H           1 MOL       0.0586
     34 H5          4.3502   27.4435    8.4353 H           1 MOL       0.0537
     35 H6          4.1569   28.4341   10.6143 H           1 MOL       0.0591
     36 H7          4.1409   30.8453   10.8564 H           1 MOL       0.0524
     37 H8          4.3202   32.2618    8.9456 H           1 MOL       0.0594
     38 H9          1.5635   31.5569    4.8412 H           1 MOL       0.0545
     39 H10         0.2975   33.4642    5.4976 H           1 MOL       0.0622
     40 H11         1.2807   35.3670    1.8485 H           1 MOL       0.0622
     41 H12         2.5575   33.4611    1.2115 H           1 MOL       0.0545
     42 H13         6.0686   30.4590    5.4011 H           1 MOL       0.0606
     43 H14         6.0098   31.7587    3.3798 H           1 MOL       0.0613
     44 H15         4.5470   33.7112    3.2181 H           1 MOL       0.0603
     45 H16         3.2204   34.3895    5.1217 H           1 MOL       0.0613
     46 H17         3.1400   33.0159    7.0898 H           1 MOL       0.0606
@<TRIPOS>BOND
     1     1     5  ar
     2     1     6  ar
     3     6     2  ar
     4     2     7  ar
     5     7     3   1
     6     3     9   1
     7     6     4   1
     8     4    16   1
     9     5     8  ar
    10     7     8  ar
    11     9    10  ar
    12     9    14  ar
    13    10    11  ar
    14    11    12  ar
    15    12    13  ar
    16    13    14  ar
    17    14    15   1
    18    15    23  ar
    19    15    27  ar
    20    16    17  ar
    21    16    21  ar
    22    17    18  ar
    23    18    19  ar
    24    19    20  ar
    25    19    22   1
    26    20    21  ar
    27    22    28  ar
    28    22    29  ar
    29    23    24  ar
    30    24    25  ar
    31    25    26  ar
    32    26    27  ar
    33     3    30   1
    34     4    31   1
    35     5    32   1
    36     8    33   1
    37    10    34   1
    38    11    35   1
    39    12    36   1
    40    13    37   1
    41    17    38   1
    42    18    39   1
    43    20    40   1
    44    21    41   1
    45    23    42   1
    46    24    43   1
    47    25    44   1
    48    26    45   1
    49    27    46   1
@<TRIPOS>SUBSTRUCTURE
     1  MOL      5

