@<TRIPOS>MOLECULE
3uo4_ligand_013
    46    49
SMALL
GAST_HUCK
****
This file was generated by PARSER (from files_GN.cpp)

@<TRIPOS>ATOM
      1 N01         3.6108   30.7639    3.7468 N.ar        1 MOL      -0.2685
      2 N02         5.8954   31.0287    4.1828 N.ar        1 MOL      -0.2339
      3 N03         7.3638   29.2690    4.4567 N.pl3       1 MOL      -0.2537
      4 N04         4.5559   32.9279    4.0740 N.pl3       1 MOL      -0.2427
      5 C05         3.7398   29.4330    3.6943 C.ar        1 MOL       0.0015
      6 C06         4.6746   31.5990    3.9859 C.ar        1 MOL       0.1962
      7 C07         6.1039   29.6992    4.1619 C.ar        1 MOL       0.1353
      8 C08         5.0245   28.8275    3.8823 C.ar        1 MOL      -0.0013
      9 C09         7.7777   27.9844    4.5809 C.ar        1 MOL       0.0745
     10 C10         8.4826   27.3983    3.5011 C.ar        1 MOL      -0.0363
     11 C11         9.0297   26.1143    3.6072 C.ar        1 MOL      -0.0708
     12 C12         8.8824   25.3867    4.8016 C.ar        1 MOL      -0.0722
     13 C13         8.1785   25.9483    5.8810 C.ar        1 MOL      -0.0625
     14 C14         7.6276   27.2469    5.7948 C.ar        1 MOL       0.0075
     15 C15         7.0151   27.8032    6.9493 C.ar        1 MOL      -0.0223
     16 C16         3.3865   33.6140    4.0432 C.ar        1 MOL       0.0684
     17 C17         2.7121   33.8930    5.2499 C.ar        1 MOL      -0.0343
     18 C18         1.5271   34.6501    5.2412 C.ar        1 MOL      -0.0571
     19 C19         1.0007   35.1645    4.0302 C.ar        1 MOL      -0.0016
     20 C20         1.6941   34.8820    2.8246 C.ar        1 MOL      -0.0571
     21 C21         2.8723   34.1119    2.8324 C.ar        1 MOL      -0.0343
     22 C22        -0.1832   35.9428    4.0301 C.2         1 MOL       0.0553
     23 C23         7.7711   27.9389    8.1460 C.ar        1 MOL      -0.0571
     24 C24         7.1745   28.4539    9.3057 C.ar        1 MOL      -0.0632
     25 C25         5.8240   28.8408    9.3026 C.ar        1 MOL      -0.0635
     26 C26         5.0623   28.7064    8.1241 C.ar        1 MOL      -0.0632
     27 C27         5.6557   28.1773    6.9707 C.ar        1 MOL      -0.0571
     28 O28        -0.4481   36.8301    3.0406 O.co2       1 MOL      -0.5638
     29 O29        -1.1273   35.7846    4.9914 O.co2       1 MOL      -0.5638
     30 H1          8.0288   29.9596    4.6312 H           1 MOL       0.2176
     31 H2          5.3596   33.4462    4.2756 H           1 MOL       0.2187
     32 H3          2.9417   28.8327    3.4970 H           1 MOL       0.0849
     33 H4          5.1203   27.8269    3.8296 H           1 MOL       0.0586
     34 H5          8.6176   27.9294    2.6324 H           1 MOL       0.0537
     35 H6          9.5459   25.7055    2.8261 H           1 MOL       0.0591
     36 H7          9.2975   24.4579    4.8912 H           1 MOL       0.0524
     37 H8          8.0859   25.3980    6.7417 H           1 MOL       0.0594
     38 H9          3.0823   33.5488    6.1399 H           1 MOL       0.0545
     39 H10         1.0592   34.8364    6.1320 H           1 MOL       0.0622
     40 H11         1.3461   35.2314    1.9285 H           1 MOL       0.0622
     41 H12         3.3640   33.9332    1.9523 H           1 MOL       0.0545
     42 H13         8.7494   27.6546    8.1728 H           1 MOL       0.0606
     43 H14         7.7288   28.5323   10.1644 H           1 MOL       0.0613
     44 H15         5.3915   29.1962   10.1549 H           1 MOL       0.0603
     45 H16         4.0780   28.9799    8.1218 H           1 MOL       0.0613
     46 H17         5.0727   28.0513    6.1397 H           1 MOL       0.0606
@<TRIPOS>BOND
     1     1     5  ar
     2     1     6  ar
     3     6     2  ar
     4     2     7  ar
     5     7     3   1
     6     3     9   1
     7     6     4   1
     8     4    16   1
     9     5     8  ar
    10     7     8  ar
    11     9    10  ar
    12     9    14  ar
    13    10    11  ar
    14    11    12  ar
    15    12    13  ar
    16    13    14  ar
    17    14    15   1
    18    15    23  ar
    19    15    27  ar
    20    16    17  ar
    21    16    21  ar
    22    17    18  ar
    23    18    19  ar
    24    19    20  ar
    25    19    22   1
    26    20    21  ar
    27    22    28  ar
    28    22    29  ar
    29    23    24  ar
    30    24    25  ar
    31    25    26  ar
    32    26    27  ar
    33     3    30   1
    34     4    31   1
    35     5    32   1
    36     8    33   1
    37    10    34   1
    38    11    35   1
    39    12    36   1
    40    13    37   1
    41    17    38   1
    42    18    39   1
    43    20    40   1
    44    21    41   1
    45    23    42   1
    46    24    43   1
    47    25    44   1
    48    26    45   1
    49    27    46   1
@<TRIPOS>SUBSTRUCTURE
     1  MOL      5

