@<TRIPOS>MOLECULE
3uo4_ligand_026
    46    49
SMALL
GAST_HUCK
****
This file was generated by PARSER (from files_GN.cpp)

@<TRIPOS>ATOM
      1 N01         5.3641   29.7057    9.0775 N.ar        1 MOL      -0.2685
      2 N02         5.5625   30.4177    6.8610 N.ar        1 MOL      -0.2339
      3 N03         7.2899   29.8168    5.4536 N.pl3       1 MOL      -0.2537
      4 N04         3.7167   31.0818    8.2490 N.pl3       1 MOL      -0.2427
      5 C05         6.4983   28.9687    8.9813 C.ar        1 MOL       0.0015
      6 C06         4.8798   30.4289    8.0375 C.ar        1 MOL       0.1962
      7 C07         6.7240   29.7256    6.6836 C.ar        1 MOL       0.1353
      8 C08         7.2020   28.9505    7.7663 C.ar        1 MOL      -0.0013
      9 C09         8.4400   29.2384    4.9907 C.ar        1 MOL       0.0745
     10 C10         9.6445   29.3273    5.7325 C.ar        1 MOL      -0.0363
     11 C11        10.8203   28.7050    5.2764 C.ar        1 MOL      -0.0708
     12 C12        10.8220   28.0034    4.0626 C.ar        1 MOL      -0.0722
     13 C13         9.6480   27.9421    3.2931 C.ar        1 MOL      -0.0625
     14 C14         8.4569   28.5704    3.7325 C.ar        1 MOL       0.0075
     15 C15         7.3285   28.5534    2.8687 C.ar        1 MOL      -0.0223
     16 C16         2.9494   31.8209    7.3923 C.ar        1 MOL       0.0684
     17 C17         1.5556   31.7373    7.5963 C.ar        1 MOL      -0.0343
     18 C18         0.6592   32.4354    6.7718 C.ar        1 MOL      -0.0571
     19 C19         1.1199   33.2748    5.7338 C.ar        1 MOL      -0.0016
     20 C20         2.5163   33.3761    5.5365 C.ar        1 MOL      -0.0571
     21 C21         3.4165   32.6670    6.3540 C.ar        1 MOL      -0.0343
     22 C22         0.1962   33.9819    4.9254 C.2         1 MOL       0.0553
     23 C23         6.5746   27.3735    2.6708 C.ar        1 MOL      -0.0571
     24 C24         5.4900   27.3672    1.7737 C.ar        1 MOL      -0.0632
     25 C25         5.1512   28.5308    1.0603 C.ar        1 MOL      -0.0635
     26 C26         5.8970   29.7062    1.2512 C.ar        1 MOL      -0.0632
     27 C27         6.9793   29.7196    2.1493 C.ar        1 MOL      -0.0571
     28 O28         0.3724   34.0789    3.5844 O.co2       1 MOL      -0.5638
     29 O29        -0.8116   34.7003    5.4726 O.co2       1 MOL      -0.5638
     30 H1          6.7506   30.2733    4.7895 H           1 MOL       0.2176
     31 H2          3.3210   30.9268    9.1233 H           1 MOL       0.2187
     32 H3          6.8144   28.4243    9.7851 H           1 MOL       0.0849
     33 H4          8.0395   28.3687    7.6857 H           1 MOL       0.0586
     34 H5          9.6777   29.8575    6.6082 H           1 MOL       0.0537
     35 H6         11.6741   28.7590    5.8342 H           1 MOL       0.0591
     36 H7         11.6753   27.5505    3.7325 H           1 MOL       0.0524
     37 H8          9.6718   27.4365    2.4018 H           1 MOL       0.0594
     38 H9          1.1791   31.1324    8.3302 H           1 MOL       0.0545
     39 H10        -0.3436   32.2990    6.9175 H           1 MOL       0.0622
     40 H11         2.8854   33.9860    4.8028 H           1 MOL       0.0622
     41 H12         4.4169   32.7925    6.1890 H           1 MOL       0.0545
     42 H13         6.8047   26.5155    3.1785 H           1 MOL       0.0606
     43 H14         4.9475   26.5138    1.6336 H           1 MOL       0.0613
     44 H15         4.3650   28.5211    0.4017 H           1 MOL       0.0603
     45 H16         5.6569   30.5516    0.7324 H           1 MOL       0.0613
     46 H17         7.5162   30.5802    2.2656 H           1 MOL       0.0606
@<TRIPOS>BOND
     1     1     5  ar
     2     1     6  ar
     3     6     2  ar
     4     2     7  ar
     5     7     3   1
     6     3     9   1
     7     6     4   1
     8     4    16   1
     9     5     8  ar
    10     7     8  ar
    11     9    10  ar
    12     9    14  ar
    13    10    11  ar
    14    11    12  ar
    15    12    13  ar
    16    13    14  ar
    17    14    15   1
    18    15    23  ar
    19    15    27  ar
    20    16    17  ar
    21    16    21  ar
    22    17    18  ar
    23    18    19  ar
    24    19    20  ar
    25    19    22   1
    26    20    21  ar
    27    22    28  ar
    28    22    29  ar
    29    23    24  ar
    30    24    25  ar
    31    25    26  ar
    32    26    27  ar
    33     3    30   1
    34     4    31   1
    35     5    32   1
    36     8    33   1
    37    10    34   1
    38    11    35   1
    39    12    36   1
    40    13    37   1
    41    17    38   1
    42    18    39   1
    43    20    40   1
    44    21    41   1
    45    23    42   1
    46    24    43   1
    47    25    44   1
    48    26    45   1
    49    27    46   1
@<TRIPOS>SUBSTRUCTURE
     1  MOL      5

