@<TRIPOS>MOLECULE
3uo4_ligand_050
    46    49
SMALL
GAST_HUCK
****
This file was generated by PARSER (from files_GN.cpp)

@<TRIPOS>ATOM
      1 N01         3.5134   31.5949    3.0898 N.ar        1 MOL      -0.2685
      2 N02         4.1692   30.8836    5.2123 N.ar        1 MOL      -0.2339
      3 N03         5.6174   29.0088    5.4967 N.pl3       1 MOL      -0.2537
      4 N04         2.7460   32.6854    5.1005 N.pl3       1 MOL      -0.2427
      5 C05         4.2496   30.6126    2.5099 C.ar        1 MOL       0.0015
      6 C06         3.4659   31.7512    4.4397 C.ar        1 MOL       0.1962
      7 C07         4.9186   29.8625    4.7101 C.ar        1 MOL       0.1353
      8 C08         4.9784   29.7140    3.3073 C.ar        1 MOL      -0.0013
      9 C09         5.6597   28.9614    6.8699 C.ar        1 MOL       0.0745
     10 C10         4.4848   29.1103    7.6524 C.ar        1 MOL      -0.0363
     11 C11         4.5342   29.0388    9.0560 C.ar        1 MOL      -0.0708
     12 C12         5.7587   28.8117    9.6972 C.ar        1 MOL      -0.0722
     13 C13         6.9340   28.6509    8.9448 C.ar        1 MOL      -0.0625
     14 C14         6.8974   28.7068    7.5283 C.ar        1 MOL       0.0075
     15 C15         8.1144   28.5089    6.8245 C.ar        1 MOL      -0.0223
     16 C16         1.9183   33.6810    4.6535 C.ar        1 MOL       0.0684
     17 C17         1.8896   34.2292    3.3483 C.ar        1 MOL      -0.0343
     18 C18         0.9785   35.2490    3.0109 C.ar        1 MOL      -0.0571
     19 C19         0.0718   35.7649    3.9680 C.ar        1 MOL      -0.0016
     20 C20         0.1286   35.2411    5.2803 C.ar        1 MOL      -0.0571
     21 C21         1.0383   34.2233    5.6128 C.ar        1 MOL      -0.0343
     22 C22        -0.8796   36.7619    3.6269 C.2         1 MOL       0.0553
     23 C23         8.3530   27.2997    6.1279 C.ar        1 MOL      -0.0571
     24 C24         9.5798   27.0829    5.4720 C.ar        1 MOL      -0.0632
     25 C25        10.5810   28.0706    5.5040 C.ar        1 MOL      -0.0635
     26 C26        10.3558   29.2771    6.1932 C.ar        1 MOL      -0.0632
     27 C27         9.1316   29.4929    6.8555 C.ar        1 MOL      -0.0571
     28 O28        -0.8984   37.3505    2.4108 O.co2       1 MOL      -0.5638
     29 O29        -1.8610   37.1360    4.4817 O.co2       1 MOL      -0.5638
     30 H1          6.2163   28.4025    5.0349 H           1 MOL       0.2176
     31 H2          2.7894   32.5996    6.0676 H           1 MOL       0.2187
     32 H3          4.2630   30.5312    1.4912 H           1 MOL       0.0849
     33 H4          5.5199   28.9611    2.8734 H           1 MOL       0.0586
     34 H5          3.5764   29.2519    7.2052 H           1 MOL       0.0537
     35 H6          3.6805   29.1418    9.6085 H           1 MOL       0.0591
     36 H7          5.7952   28.7529   10.7187 H           1 MOL       0.0524
     37 H8          7.8125   28.4810    9.4340 H           1 MOL       0.0594
     38 H9          2.5397   33.9058    2.6316 H           1 MOL       0.0545
     39 H10         0.9776   35.6028    2.0503 H           1 MOL       0.0622
     40 H11        -0.4955   35.5909    6.0107 H           1 MOL       0.0622
     41 H12         1.0420   33.8682    6.5748 H           1 MOL       0.0545
     42 H13         7.6416   26.5647    6.1084 H           1 MOL       0.0606
     43 H14         9.7472   26.2038    4.9768 H           1 MOL       0.0613
     44 H15        11.4718   27.9109    5.0295 H           1 MOL       0.0603
     45 H16        11.0840   29.9938    6.2160 H           1 MOL       0.0613
     46 H17         8.9891   30.3712    7.3601 H           1 MOL       0.0606
@<TRIPOS>BOND
     1     1     5  ar
     2     1     6  ar
     3     6     2  ar
     4     2     7  ar
     5     7     3   1
     6     3     9   1
     7     6     4   1
     8     4    16   1
     9     5     8  ar
    10     7     8  ar
    11     9    10  ar
    12     9    14  ar
    13    10    11  ar
    14    11    12  ar
    15    12    13  ar
    16    13    14  ar
    17    14    15   1
    18    15    23  ar
    19    15    27  ar
    20    16    17  ar
    21    16    21  ar
    22    17    18  ar
    23    18    19  ar
    24    19    20  ar
    25    19    22   1
    26    20    21  ar
    27    22    28  ar
    28    22    29  ar
    29    23    24  ar
    30    24    25  ar
    31    25    26  ar
    32    26    27  ar
    33     3    30   1
    34     4    31   1
    35     5    32   1
    36     8    33   1
    37    10    34   1
    38    11    35   1
    39    12    36   1
    40    13    37   1
    41    17    38   1
    42    18    39   1
    43    20    40   1
    44    21    41   1
    45    23    42   1
    46    24    43   1
    47    25    44   1
    48    26    45   1
    49    27    46   1
@<TRIPOS>SUBSTRUCTURE
     1  MOL      5

