@<TRIPOS>MOLECULE
3uo4_ligand_030
    46    49
SMALL
GAST_HUCK
****
This file was generated by PARSER (from files_GN.cpp)

@<TRIPOS>ATOM
      1 N01        10.3135   28.4665    3.9526 N.ar        1 MOL      -0.2685
      2 N02         8.8982   29.8690    2.7469 N.ar        1 MOL      -0.2339
      3 N03         9.2979   30.2220    0.3991 N.pl3       1 MOL      -0.2537
      4 N04         8.4447   29.5274    5.0169 N.pl3       1 MOL      -0.2427
      5 C05        11.0731   28.2366    2.8562 C.ar        1 MOL       0.0015
      6 C06         9.2252   29.2790    3.9311 C.ar        1 MOL       0.1962
      7 C07         9.6088   29.6724    1.5943 C.ar        1 MOL       0.1353
      8 C08        10.7391   28.8397    1.6358 C.ar        1 MOL      -0.0013
      9 C09         8.2213   30.9807    0.0591 C.ar        1 MOL       0.0745
     10 C10         8.5232   32.1243   -0.7104 C.ar        1 MOL      -0.0363
     11 C11         7.5064   32.9736   -1.1780 C.ar        1 MOL      -0.0708
     12 C12         6.1637   32.6754   -0.8912 C.ar        1 MOL      -0.0722
     13 C13         5.8451   31.5310   -0.1366 C.ar        1 MOL      -0.0625
     14 C14         6.8591   30.6621    0.3415 C.ar        1 MOL       0.0075
     15 C15         6.4739   29.4794    1.0451 C.ar        1 MOL      -0.0223
     16 C16         8.4979   29.0447    6.3046 C.ar        1 MOL       0.0684
     17 C17         7.4571   29.4714    7.1643 C.ar        1 MOL      -0.0343
     18 C18         7.3849   29.0476    8.5017 C.ar        1 MOL      -0.0571
     19 C19         8.3715   28.1928    9.0342 C.ar        1 MOL      -0.0016
     20 C20         9.4103   27.7501    8.1900 C.ar        1 MOL      -0.0571
     21 C21         9.4711   28.1666    6.8480 C.ar        1 MOL      -0.0343
     22 C22         8.3412   27.8066   10.3901 C.2         1 MOL       0.0553
     23 C23         6.9513   28.2028    0.6533 C.ar        1 MOL      -0.0571
     24 C24         6.6650   27.0562    1.4209 C.ar        1 MOL      -0.0632
     25 C25         5.8715   27.1641    2.5751 C.ar        1 MOL      -0.0635
     26 C26         5.3461   28.4112    2.9475 C.ar        1 MOL      -0.0632
     27 C27         5.6453   29.5608    2.1930 C.ar        1 MOL      -0.0571
     28 O28         7.1941   27.8230   11.1075 O.co2       1 MOL      -0.5638
     29 O29         9.4851   27.5068   11.0477 O.co2       1 MOL      -0.5638
     30 H1          9.9667   30.1070   -0.3022 H           1 MOL       0.2176
     31 H2          7.7123   30.1437    4.8410 H           1 MOL       0.2187
     32 H3         11.8833   27.6192    2.9285 H           1 MOL       0.0849
     33 H4         11.3068   28.6623    0.8026 H           1 MOL       0.0586
     34 H5          9.4962   32.3593   -0.9294 H           1 MOL       0.0537
     35 H6          7.7410   33.8035   -1.7331 H           1 MOL       0.0591
     36 H7          5.4231   33.2837   -1.2451 H           1 MOL       0.0524
     37 H8          4.8584   31.3221    0.0286 H           1 MOL       0.0594
     38 H9          6.7307   30.1072    6.8192 H           1 MOL       0.0545
     39 H10         6.6170   29.3904    9.0895 H           1 MOL       0.0622
     40 H11        10.1263   27.1077    8.5416 H           1 MOL       0.0622
     41 H12        10.2468   27.8100    6.2880 H           1 MOL       0.0545
     42 H13         7.5270   28.1014   -0.1865 H           1 MOL       0.0606
     43 H14         7.0368   26.1459    1.1367 H           1 MOL       0.0613
     44 H15         5.6674   26.3364    3.1356 H           1 MOL       0.0603
     45 H16         4.7480   28.4850    3.7757 H           1 MOL       0.0613
     46 H17         5.2702   30.4630    2.4996 H           1 MOL       0.0606
@<TRIPOS>BOND
     1     1     5  ar
     2     1     6  ar
     3     6     2  ar
     4     2     7  ar
     5     7     3   1
     6     3     9   1
     7     6     4   1
     8     4    16   1
     9     5     8  ar
    10     7     8  ar
    11     9    10  ar
    12     9    14  ar
    13    10    11  ar
    14    11    12  ar
    15    12    13  ar
    16    13    14  ar
    17    14    15   1
    18    15    23  ar
    19    15    27  ar
    20    16    17  ar
    21    16    21  ar
    22    17    18  ar
    23    18    19  ar
    24    19    20  ar
    25    19    22   1
    26    20    21  ar
    27    22    28  ar
    28    22    29  ar
    29    23    24  ar
    30    24    25  ar
    31    25    26  ar
    32    26    27  ar
    33     3    30   1
    34     4    31   1
    35     5    32   1
    36     8    33   1
    37    10    34   1
    38    11    35   1
    39    12    36   1
    40    13    37   1
    41    17    38   1
    42    18    39   1
    43    20    40   1
    44    21    41   1
    45    23    42   1
    46    24    43   1
    47    25    44   1
    48    26    45   1
    49    27    46   1
@<TRIPOS>SUBSTRUCTURE
     1  MOL      5

