@<TRIPOS>MOLECULE
3uo4_ligand_060
    46    49
SMALL
GAST_HUCK
****
This file was generated by PARSER (from files_GN.cpp)

@<TRIPOS>ATOM
      1 N01         6.9355   30.1073    6.4513 N.ar        1 MOL      -0.2685
      2 N02         6.0443   30.8257    4.4205 N.ar        1 MOL      -0.2339
      3 N03         7.0606   30.5337    2.3729 N.pl3       1 MOL      -0.2537
      4 N04         4.8653   31.1564    6.4784 N.pl3       1 MOL      -0.2427
      5 C05         8.0719   29.6956    5.8341 C.ar        1 MOL       0.0015
      6 C06         5.9294   30.7078    5.7725 C.ar        1 MOL       0.1962
      7 C07         7.1339   30.4143    3.7237 C.ar        1 MOL       0.1353
      8 C08         8.2251   29.8899    4.4526 C.ar        1 MOL      -0.0013
      9 C09         7.9382   30.0681    1.4303 C.ar        1 MOL       0.0745
     10 C10         8.3663   31.0021    0.4620 C.ar        1 MOL      -0.0363
     11 C11         9.3363   30.6548   -0.4925 C.ar        1 MOL      -0.0708
     12 C12         9.8694   29.3587   -0.5066 C.ar        1 MOL      -0.0722
     13 C13         9.4134   28.4014    0.4136 C.ar        1 MOL      -0.0625
     14 C14         8.4292   28.7274    1.3842 C.ar        1 MOL       0.0075
     15 C15         7.9801   27.7187    2.2902 C.ar        1 MOL      -0.0223
     16 C16         3.8182   31.9189    6.0404 C.ar        1 MOL       0.0684
     17 C17         3.8928   32.8250    4.9549 C.ar        1 MOL      -0.0343
     18 C18         2.7619   33.5429    4.5358 C.ar        1 MOL      -0.0571
     19 C19         1.5325   33.4180    5.2210 C.ar        1 MOL      -0.0016
     20 C20         1.4764   32.5739    6.3539 C.ar        1 MOL      -0.0571
     21 C21         2.6037   31.8328    6.7538 C.ar        1 MOL      -0.0343
     22 C22         0.3849   34.0975    4.7592 C.2         1 MOL       0.0553
     23 C23         6.5971   27.4864    2.5049 C.ar        1 MOL      -0.0571
     24 C24         6.1632   26.6369    3.5384 C.ar        1 MOL      -0.0632
     25 C25         7.0997   25.9904    4.3611 C.ar        1 MOL      -0.0635
     26 C26         8.4750   26.1698    4.1309 C.ar        1 MOL      -0.0632
     27 C27         8.9107   27.0158    3.0960 C.ar        1 MOL      -0.0571
     28 O28        -0.6263   34.4467    5.5891 O.co2       1 MOL      -0.5638
     29 O29         0.2640   34.4241    3.4523 O.co2       1 MOL      -0.5638
     30 H1          6.3012   31.0339    2.0327 H           1 MOL       0.2176
     31 H2          4.8436   30.8971    7.4171 H           1 MOL       0.2187
     32 H3          8.8144   29.2546    6.3795 H           1 MOL       0.0849
     33 H4          9.1001   29.6436    3.9932 H           1 MOL       0.0586
     34 H5          7.9966   31.9564    0.4613 H           1 MOL       0.0537
     35 H6          9.6629   31.3496   -1.1694 H           1 MOL       0.0591
     36 H7         10.5933   29.1109   -1.1858 H           1 MOL       0.0524
     37 H8          9.8060   27.4556    0.3668 H           1 MOL       0.0594
     38 H9          4.7729   32.9913    4.4632 H           1 MOL       0.0545
     39 H10         2.8512   34.1656    3.7284 H           1 MOL       0.0622
     40 H11         0.6044   32.4614    6.8768 H           1 MOL       0.0622
     41 H12         2.5249   31.2050    7.5592 H           1 MOL       0.0545
     42 H13         5.8942   27.9754    1.9451 H           1 MOL       0.0606
     43 H14         5.1636   26.5246    3.7167 H           1 MOL       0.0613
     44 H15         6.7834   25.3988    5.1337 H           1 MOL       0.0603
     45 H16         9.1581   25.7159    4.7410 H           1 MOL       0.0613
     46 H17         9.9142   27.1832    2.9913 H           1 MOL       0.0606
@<TRIPOS>BOND
     1     1     5  ar
     2     1     6  ar
     3     6     2  ar
     4     2     7  ar
     5     7     3   1
     6     3     9   1
     7     6     4   1
     8     4    16   1
     9     5     8  ar
    10     7     8  ar
    11     9    10  ar
    12     9    14  ar
    13    10    11  ar
    14    11    12  ar
    15    12    13  ar
    16    13    14  ar
    17    14    15   1
    18    15    23  ar
    19    15    27  ar
    20    16    17  ar
    21    16    21  ar
    22    17    18  ar
    23    18    19  ar
    24    19    20  ar
    25    19    22   1
    26    20    21  ar
    27    22    28  ar
    28    22    29  ar
    29    23    24  ar
    30    24    25  ar
    31    25    26  ar
    32    26    27  ar
    33     3    30   1
    34     4    31   1
    35     5    32   1
    36     8    33   1
    37    10    34   1
    38    11    35   1
    39    12    36   1
    40    13    37   1
    41    17    38   1
    42    18    39   1
    43    20    40   1
    44    21    41   1
    45    23    42   1
    46    24    43   1
    47    25    44   1
    48    26    45   1
    49    27    46   1
@<TRIPOS>SUBSTRUCTURE
     1  MOL      5

