@<TRIPOS>MOLECULE
3uo4_ligand_034
    46    49
SMALL
GAST_HUCK
****
This file was generated by PARSER (from files_GN.cpp)

@<TRIPOS>ATOM
      1 N01         5.7079   31.0198    3.7251 N.ar        1 MOL      -0.2685
      2 N02         4.1386   31.7370    2.1656 N.ar        1 MOL      -0.2339
      3 N03         4.2294   31.0772   -0.1073 N.pl3       1 MOL      -0.2537
      4 N04         4.0813   32.5623    4.3995 N.pl3       1 MOL      -0.2427
      5 C05         6.3209   30.2580    2.7816 C.ar        1 MOL       0.0015
      6 C06         4.6208   31.7801    3.4338 C.ar        1 MOL       0.1962
      7 C07         4.6894   31.0086    1.1646 C.ar        1 MOL       0.1353
      8 C08         5.8283   30.2390    1.4630 C.ar        1 MOL      -0.0013
      9 C09         3.1859   31.8367   -0.5721 C.ar        1 MOL       0.0745
     10 C10         1.9205   31.8187    0.0635 C.ar        1 MOL      -0.0363
     11 C11         0.8423   32.5559   -0.4571 C.ar        1 MOL      -0.0708
     12 C12         1.0099   33.3281   -1.6172 C.ar        1 MOL      -0.0722
     13 C13         2.2551   33.3522   -2.2661 C.ar        1 MOL      -0.0625
     14 C14         3.3412   32.6043   -1.7581 C.ar        1 MOL       0.0075
     15 C15         4.5743   32.6765   -2.4421 C.ar        1 MOL      -0.0223
     16 C16         3.0593   33.4728    4.2757 C.ar        1 MOL       0.0684
     17 C17         2.3503   33.8152    5.4470 C.ar        1 MOL      -0.0343
     18 C18         1.2660   34.7129    5.3994 C.ar        1 MOL      -0.0571
     19 C19         0.8660   35.3087    4.1793 C.ar        1 MOL      -0.0016
     20 C20         1.6038   35.0053    3.0145 C.ar        1 MOL      -0.0571
     21 C21         2.6926   34.1226    3.0693 C.ar        1 MOL      -0.0343
     22 C22        -0.2427   36.1855    4.1184 C.2         1 MOL       0.0553
     23 C23         4.8374   31.8022   -3.5193 C.ar        1 MOL      -0.0571
     24 C24         6.0576   31.8857   -4.2143 C.ar        1 MOL      -0.0632
     25 C25         7.0163   32.8449   -3.8410 C.ar        1 MOL      -0.0635
     26 C26         6.7589   33.7218   -2.7710 C.ar        1 MOL      -0.0632
     27 C27         5.5404   33.6387   -2.0711 C.ar        1 MOL      -0.0571
     28 O28        -1.2258   36.1199    5.0466 O.co2       1 MOL      -0.5638
     29 O29        -0.3699   37.0992    3.1267 O.co2       1 MOL      -0.5638
     30 H1          4.7862   30.6528   -0.7800 H           1 MOL       0.2176
     31 H2          4.4426   32.4388    5.2932 H           1 MOL       0.2187
     32 H3          7.1514   29.7192    3.0297 H           1 MOL       0.0849
     33 H4          6.2930   29.6805    0.7415 H           1 MOL       0.0586
     34 H5          1.7645   31.2434    0.8936 H           1 MOL       0.0537
     35 H6         -0.0686   32.5197    0.0007 H           1 MOL       0.0591
     36 H7          0.2280   33.8713   -1.9904 H           1 MOL       0.0524
     37 H8          2.3618   33.9225   -3.1104 H           1 MOL       0.0594
     38 H9          2.6106   33.3958    6.3447 H           1 MOL       0.0545
     39 H10         0.7711   34.9280    6.2682 H           1 MOL       0.0622
     40 H11         1.3574   35.4168    2.1085 H           1 MOL       0.0622
     41 H12         3.2268   33.9976    2.2112 H           1 MOL       0.0545
     42 H13         4.1433   31.1070   -3.8071 H           1 MOL       0.0606
     43 H14         6.2444   31.2524   -4.9944 H           1 MOL       0.0613
     44 H15         7.8971   32.9073   -4.3536 H           1 MOL       0.0603
     45 H16         7.4544   34.4228   -2.5050 H           1 MOL       0.0613
     46 H17         5.3606   34.2869   -1.2991 H           1 MOL       0.0606
@<TRIPOS>BOND
     1     1     5  ar
     2     1     6  ar
     3     6     2  ar
     4     2     7  ar
     5     7     3   1
     6     3     9   1
     7     6     4   1
     8     4    16   1
     9     5     8  ar
    10     7     8  ar
    11     9    10  ar
    12     9    14  ar
    13    10    11  ar
    14    11    12  ar
    15    12    13  ar
    16    13    14  ar
    17    14    15   1
    18    15    23  ar
    19    15    27  ar
    20    16    17  ar
    21    16    21  ar
    22    17    18  ar
    23    18    19  ar
    24    19    20  ar
    25    19    22   1
    26    20    21  ar
    27    22    28  ar
    28    22    29  ar
    29    23    24  ar
    30    24    25  ar
    31    25    26  ar
    32    26    27  ar
    33     3    30   1
    34     4    31   1
    35     5    32   1
    36     8    33   1
    37    10    34   1
    38    11    35   1
    39    12    36   1
    40    13    37   1
    41    17    38   1
    42    18    39   1
    43    20    40   1
    44    21    41   1
    45    23    42   1
    46    24    43   1
    47    25    44   1
    48    26    45   1
    49    27    46   1
@<TRIPOS>SUBSTRUCTURE
     1  MOL      5

