@<TRIPOS>MOLECULE
3uo4_ligand_038
    46    49
SMALL
GAST_HUCK
****
This file was generated by PARSER (from files_GN.cpp)

@<TRIPOS>ATOM
      1 N01         4.5658   31.1946    2.7126 N.ar        1 MOL      -0.2685
      2 N02         6.3834   30.7623    4.1056 N.ar        1 MOL      -0.2339
      3 N03         8.4006   29.8083    3.2578 N.pl3       1 MOL      -0.2537
      4 N04         4.5180   31.7327    5.0533 N.pl3       1 MOL      -0.2427
      5 C05         5.2278   30.6653    1.6515 C.ar        1 MOL       0.0015
      6 C06         5.1301   31.2521    3.9488 C.ar        1 MOL       0.1962
      7 C07         7.1291   30.2509    3.0897 C.ar        1 MOL       0.1353
      8 C08         6.5378   30.1784    1.8129 C.ar        1 MOL      -0.0013
      9 C09         9.1827   29.8052    4.3883 C.ar        1 MOL       0.0745
     10 C10         9.0401   30.7749    5.4161 C.ar        1 MOL      -0.0363
     11 C11         9.8735   30.7715    6.5451 C.ar        1 MOL      -0.0708
     12 C12        10.8820   29.8044    6.6623 C.ar        1 MOL      -0.0722
     13 C13        11.0626   28.8532    5.6444 C.ar        1 MOL      -0.0625
     14 C14        10.2402   28.8560    4.4924 C.ar        1 MOL       0.0075
     15 C15        10.5294   27.9155    3.4653 C.ar        1 MOL      -0.0223
     16 C16         3.2938   32.3230    5.1363 C.ar        1 MOL       0.0684
     17 C17         2.8493   33.3143    4.2322 C.ar        1 MOL      -0.0343
     18 C18         1.5845   33.9136    4.3893 C.ar        1 MOL      -0.0571
     19 C19         0.7229   33.5165    5.4379 C.ar        1 MOL      -0.0016
     20 C20         1.1915   32.5591    6.3662 C.ar        1 MOL      -0.0571
     21 C21         2.4678   31.9836    6.2271 C.ar        1 MOL      -0.0343
     22 C22        -0.5762   34.0567    5.5719 C.2         1 MOL       0.0553
     23 C23        11.6989   28.0570    2.6805 C.ar        1 MOL      -0.0571
     24 C24        12.0186   27.1056    1.6926 C.ar        1 MOL      -0.0632
     25 C25        11.1661   26.0093    1.4707 C.ar        1 MOL      -0.0635
     26 C26         9.9860   25.8752    2.2248 C.ar        1 MOL      -0.0632
     27 C27         9.6676   26.8225    3.2171 C.ar        1 MOL      -0.0571
     28 O28        -1.6206   33.2823    5.9399 O.co2       1 MOL      -0.5638
     29 O29        -0.8520   35.3330    5.2278 O.co2       1 MOL      -0.5638
     30 H1          8.7996   29.3928    2.4756 H           1 MOL       0.2176
     31 H2          4.9751   31.5659    5.8922 H           1 MOL       0.2187
     32 H3          4.7667   30.6248    0.7407 H           1 MOL       0.0849
     33 H4          7.0456   29.7938    1.0143 H           1 MOL       0.0586
     34 H5          8.3608   31.5298    5.3396 H           1 MOL       0.0537
     35 H6          9.7530   31.4803    7.2723 H           1 MOL       0.0591
     36 H7         11.4992   29.8040    7.4784 H           1 MOL       0.0524
     37 H8         11.8014   28.1557    5.7555 H           1 MOL       0.0594
     38 H9          3.4548   33.6249    3.4692 H           1 MOL       0.0545
     39 H10         1.2932   34.6282    3.7146 H           1 MOL       0.0622
     40 H11         0.6136   32.2767    7.1630 H           1 MOL       0.0622
     41 H12         2.7812   31.2920    6.9155 H           1 MOL       0.0545
     42 H13        12.3238   28.8556    2.8180 H           1 MOL       0.0606
     43 H14        12.8711   27.2097    1.1366 H           1 MOL       0.0613
     44 H15        11.4011   25.3131    0.7594 H           1 MOL       0.0603
     45 H16         9.3606   25.0861    2.0523 H           1 MOL       0.0613
     46 H17         8.8102   26.7011    3.7623 H           1 MOL       0.0606
@<TRIPOS>BOND
     1     1     5  ar
     2     1     6  ar
     3     6     2  ar
     4     2     7  ar
     5     7     3   1
     6     3     9   1
     7     6     4   1
     8     4    16   1
     9     5     8  ar
    10     7     8  ar
    11     9    10  ar
    12     9    14  ar
    13    10    11  ar
    14    11    12  ar
    15    12    13  ar
    16    13    14  ar
    17    14    15   1
    18    15    23  ar
    19    15    27  ar
    20    16    17  ar
    21    16    21  ar
    22    17    18  ar
    23    18    19  ar
    24    19    20  ar
    25    19    22   1
    26    20    21  ar
    27    22    28  ar
    28    22    29  ar
    29    23    24  ar
    30    24    25  ar
    31    25    26  ar
    32    26    27  ar
    33     3    30   1
    34     4    31   1
    35     5    32   1
    36     8    33   1
    37    10    34   1
    38    11    35   1
    39    12    36   1
    40    13    37   1
    41    17    38   1
    42    18    39   1
    43    20    40   1
    44    21    41   1
    45    23    42   1
    46    24    43   1
    47    25    44   1
    48    26    45   1
    49    27    46   1
@<TRIPOS>SUBSTRUCTURE
     1  MOL      5

