@<TRIPOS>MOLECULE
3uo4_ligand_036
    46    49
SMALL
GAST_HUCK
****
This file was generated by PARSER (from files_GN.cpp)

@<TRIPOS>ATOM
      1 N01         4.6701   34.0278    1.3196 N.ar        1 MOL      -0.2685
      2 N02         3.0562   32.3899    1.7148 N.ar        1 MOL      -0.2339
      3 N03         1.6856   31.5235    0.0783 N.pl3       1 MOL      -0.2537
      4 N04         4.4469   33.2303    3.4771 N.pl3       1 MOL      -0.2427
      5 C05         4.3005   34.1249    0.0202 C.ar        1 MOL       0.0015
      6 C06         4.0556   33.1815    2.1844 C.ar        1 MOL       0.1962
      7 C07         2.6530   32.4036    0.4154 C.ar        1 MOL       0.1353
      8 C08         3.2659   33.3223   -0.4674 C.ar        1 MOL      -0.0013
      9 C09         1.1978   31.2840   -1.1741 C.ar        1 MOL       0.0745
     10 C10        -0.1983   31.3678   -1.3336 C.ar        1 MOL      -0.0363
     11 C11        -0.7781   31.2399   -2.6076 C.ar        1 MOL      -0.0708
     12 C12         0.0337   30.9973   -3.7260 C.ar        1 MOL      -0.0722
     13 C13         1.4265   30.8720   -3.5704 C.ar        1 MOL      -0.0625
     14 C14         2.0287   31.0037   -2.2983 C.ar        1 MOL       0.0075
     15 C15         3.4403   30.8543   -2.1760 C.ar        1 MOL      -0.0223
     16 C16         3.9116   32.5910    4.5501 C.ar        1 MOL       0.0684
     17 C17         3.5069   31.2375    4.5573 C.ar        1 MOL      -0.0343
     18 C18         2.9999   30.6475    5.7325 C.ar        1 MOL      -0.0571
     19 C19         2.8813   31.3933    6.9322 C.ar        1 MOL      -0.0016
     20 C20         3.2977   32.7458    6.9177 C.ar        1 MOL      -0.0571
     21 C21         3.8171   33.3293    5.7489 C.ar        1 MOL      -0.0343
     22 C22         2.3787   30.8056    8.1170 C.2         1 MOL       0.0553
     23 C23         3.9989   29.9269   -1.2622 C.ar        1 MOL      -0.0571
     24 C24         5.3929   29.8266   -1.1007 C.ar        1 MOL      -0.0632
     25 C25         6.2485   30.6584   -1.8399 C.ar        1 MOL      -0.0635
     26 C26         5.7098   31.5823   -2.7565 C.ar        1 MOL      -0.0632
     27 C27         4.3193   31.6732   -2.9287 C.ar        1 MOL      -0.0571
     28 O28         1.9545   29.5227    8.1410 O.co2       1 MOL      -0.5638
     29 O29         2.2830   31.5002    9.2742 O.co2       1 MOL      -0.5638
     30 H1          1.2838   31.0224    0.8063 H           1 MOL       0.2176
     31 H2          5.1128   33.8969    3.6868 H           1 MOL       0.2187
     32 H3          4.7906   34.7826   -0.5975 H           1 MOL       0.0849
     33 H4          2.9653   33.4086   -1.4402 H           1 MOL       0.0586
     34 H5         -0.8036   31.5608   -0.5294 H           1 MOL       0.0537
     35 H6         -1.7894   31.3463   -2.7212 H           1 MOL       0.0591
     36 H7         -0.3867   30.9278   -4.6558 H           1 MOL       0.0524
     37 H8          1.9979   30.6808   -4.3992 H           1 MOL       0.0594
     38 H9          3.6055   30.6612    3.7185 H           1 MOL       0.0545
     39 H10         2.7211   29.6638    5.6980 H           1 MOL       0.0622
     40 H11         3.2418   33.3225    7.7615 H           1 MOL       0.0622
     41 H12         4.1136   34.3104    5.7770 H           1 MOL       0.0545
     42 H13         3.3931   29.3062   -0.7206 H           1 MOL       0.0606
     43 H14         5.7836   29.1543   -0.4347 H           1 MOL       0.0613
     44 H15         7.2604   30.6006   -1.7084 H           1 MOL       0.0603
     45 H16         6.3332   32.1931   -3.2885 H           1 MOL       0.0613
     46 H17         3.9456   32.3613   -3.5883 H           1 MOL       0.0606
@<TRIPOS>BOND
     1     1     5  ar
     2     1     6  ar
     3     6     2  ar
     4     2     7  ar
     5     7     3   1
     6     3     9   1
     7     6     4   1
     8     4    16   1
     9     5     8  ar
    10     7     8  ar
    11     9    10  ar
    12     9    14  ar
    13    10    11  ar
    14    11    12  ar
    15    12    13  ar
    16    13    14  ar
    17    14    15   1
    18    15    23  ar
    19    15    27  ar
    20    16    17  ar
    21    16    21  ar
    22    17    18  ar
    23    18    19  ar
    24    19    20  ar
    25    19    22   1
    26    20    21  ar
    27    22    28  ar
    28    22    29  ar
    29    23    24  ar
    30    24    25  ar
    31    25    26  ar
    32    26    27  ar
    33     3    30   1
    34     4    31   1
    35     5    32   1
    36     8    33   1
    37    10    34   1
    38    11    35   1
    39    12    36   1
    40    13    37   1
    41    17    38   1
    42    18    39   1
    43    20    40   1
    44    21    41   1
    45    23    42   1
    46    24    43   1
    47    25    44   1
    48    26    45   1
    49    27    46   1
@<TRIPOS>SUBSTRUCTURE
     1  MOL      5

