@<TRIPOS>MOLECULE
3uo4_ligand_002
    46    49
SMALL
GAST_HUCK
****
This file was generated by PARSER (from files_GN.cpp)

@<TRIPOS>ATOM
      1 N01         8.5066   32.7664   -0.7801 N.ar        1 MOL      -0.2685
      2 N02         7.0333   31.3888    0.4104 N.ar        1 MOL      -0.2339
      3 N03         7.8759   29.6251    1.7712 N.pl3       1 MOL      -0.2537
      4 N04         6.2492   33.2420   -0.9019 N.pl3       1 MOL      -0.2427
      5 C05         9.5790   32.0899   -0.3032 C.ar        1 MOL       0.0015
      6 C06         7.2323   32.4378   -0.4392 C.ar        1 MOL       0.1962
      7 C07         8.0665   30.6680    0.9331 C.ar        1 MOL       0.1353
      8 C08         9.3862   31.0174    0.5811 C.ar        1 MOL      -0.0013
      9 C09         6.6632   29.1306    2.1469 C.ar        1 MOL       0.0745
     10 C10         5.9045   29.8278    3.1135 C.ar        1 MOL      -0.0363
     11 C11         4.6683   29.3134    3.5468 C.ar        1 MOL      -0.0708
     12 C12         4.1837   28.1035    3.0223 C.ar        1 MOL      -0.0722
     13 C13         4.9374   27.4017    2.0605 C.ar        1 MOL      -0.0625
     14 C14         6.1841   27.9046    1.6201 C.ar        1 MOL       0.0075
     15 C15         6.9074   27.2010    0.6261 C.ar        1 MOL      -0.0223
     16 C16         4.9434   33.1673   -0.5300 C.ar        1 MOL       0.0684
     17 C17         4.4163   34.1990    0.2696 C.ar        1 MOL      -0.0343
     18 C18         3.0593   34.1822    0.6465 C.ar        1 MOL      -0.0571
     19 C19         2.1894   33.1618    0.1802 C.ar        1 MOL      -0.0016
     20 C20         2.7307   32.1357   -0.6323 C.ar        1 MOL      -0.0571
     21 C21         4.0997   32.1264   -0.9761 C.ar        1 MOL      -0.0343
     22 C22         0.8123   33.1759    0.5256 C.2         1 MOL       0.0553
     23 C23         7.9201   26.2858    0.9862 C.ar        1 MOL      -0.0571
     24 C24         8.6732   25.6281   -0.0075 C.ar        1 MOL      -0.0632
     25 C25         8.4141   25.8797   -1.3675 C.ar        1 MOL      -0.0635
     26 C26         7.4131   26.7985   -1.7353 C.ar        1 MOL      -0.0632
     27 C27         6.6639   27.4572   -0.7401 C.ar        1 MOL      -0.0571
     28 O28         0.3106   34.0422    1.4326 O.co2       1 MOL      -0.5638
     29 O29        -0.0535   32.2960   -0.0026 O.co2       1 MOL      -0.5638
     30 H1          8.6597   29.1216    2.0424 H           1 MOL       0.2176
     31 H2          6.5268   34.0411   -1.3628 H           1 MOL       0.2187
     32 H3         10.5179   32.3749   -0.5789 H           1 MOL       0.0849
     33 H4         10.1908   30.5105    0.9600 H           1 MOL       0.0586
     34 H5          6.2542   30.6977    3.5166 H           1 MOL       0.0537
     35 H6          4.1252   29.8190    4.2526 H           1 MOL       0.0591
     36 H7          3.2856   27.7322    3.3391 H           1 MOL       0.0524
     37 H8          4.5703   26.5213    1.6904 H           1 MOL       0.0594
     38 H9          5.0104   34.9514    0.6061 H           1 MOL       0.0545
     39 H10         2.7208   34.9156    1.2659 H           1 MOL       0.0622
     40 H11         2.1377   31.3829   -0.9900 H           1 MOL       0.0622
     41 H12         4.4615   31.3836   -1.5711 H           1 MOL       0.0545
     42 H13         8.1253   26.0935    1.9724 H           1 MOL       0.0606
     43 H14         9.4032   24.9656    0.2580 H           1 MOL       0.0613
     44 H15         8.9546   25.3976   -2.0890 H           1 MOL       0.0603
     45 H16         7.2361   26.9888   -2.7215 H           1 MOL       0.0613
     46 H17         5.9472   28.1339   -1.0255 H           1 MOL       0.0606
@<TRIPOS>BOND
     1     1     5  ar
     2     1     6  ar
     3     6     2  ar
     4     2     7  ar
     5     7     3   1
     6     3     9   1
     7     6     4   1
     8     4    16   1
     9     5     8  ar
    10     7     8  ar
    11     9    10  ar
    12     9    14  ar
    13    10    11  ar
    14    11    12  ar
    15    12    13  ar
    16    13    14  ar
    17    14    15   1
    18    15    23  ar
    19    15    27  ar
    20    16    17  ar
    21    16    21  ar
    22    17    18  ar
    23    18    19  ar
    24    19    20  ar
    25    19    22   1
    26    20    21  ar
    27    22    28  ar
    28    22    29  ar
    29    23    24  ar
    30    24    25  ar
    31    25    26  ar
    32    26    27  ar
    33     3    30   1
    34     4    31   1
    35     5    32   1
    36     8    33   1
    37    10    34   1
    38    11    35   1
    39    12    36   1
    40    13    37   1
    41    17    38   1
    42    18    39   1
    43    20    40   1
    44    21    41   1
    45    23    42   1
    46    24    43   1
    47    25    44   1
    48    26    45   1
    49    27    46   1
@<TRIPOS>SUBSTRUCTURE
     1  MOL      5

