@<TRIPOS>MOLECULE
3uo4_ligand_017
    46    49
SMALL
GAST_HUCK
****
This file was generated by PARSER (from files_GN.cpp)

@<TRIPOS>ATOM
      1 N01         3.4988   29.4923    8.2320 N.ar        1 MOL      -0.2685
      2 N02         4.9883   29.7071    6.4568 N.ar        1 MOL      -0.2339
      3 N03         6.8515   28.3488    6.1413 N.pl3       1 MOL      -0.2537
      4 N04         3.0206   31.1080    6.6811 N.pl3       1 MOL      -0.2427
      5 C05         4.1934   28.4450    8.7312 C.ar        1 MOL       0.0015
      6 C06         3.8633   30.1333    7.0971 C.ar        1 MOL       0.1962
      7 C07         5.7592   28.6674    6.8908 C.ar        1 MOL       0.1353
      8 C08         5.3310   27.9848    8.0527 C.ar        1 MOL      -0.0013
      9 C09         7.7262   27.3151    6.3137 C.ar        1 MOL       0.0745
     10 C10         8.3860   27.1834    7.5609 C.ar        1 MOL      -0.0363
     11 C11         9.2632   26.1178    7.8168 C.ar        1 MOL      -0.0708
     12 C12         9.5349   25.1862    6.8067 C.ar        1 MOL      -0.0722
     13 C13         8.9468   25.3390    5.5417 C.ar        1 MOL      -0.0625
     14 C14         8.0683   26.4214    5.2488 C.ar        1 MOL       0.0075
     15 C15         7.5816   26.5477    3.8995 C.ar        1 MOL      -0.0223
     16 C16         3.0325   31.9005    5.5652 C.ar        1 MOL       0.0684
     17 C17         1.7925   32.4430    5.1608 C.ar        1 MOL      -0.0343
     18 C18         1.6976   33.2654    4.0230 C.ar        1 MOL      -0.0571
     19 C19         2.8452   33.5827    3.2594 C.ar        1 MOL      -0.0016
     20 C20         4.0864   33.0482    3.6729 C.ar        1 MOL      -0.0571
     21 C21         4.1808   32.2213    4.8057 C.ar        1 MOL      -0.0343
     22 C22         2.7553   34.4184    2.1225 C.2         1 MOL       0.0553
     23 C23         6.2596   26.9742    3.6115 C.ar        1 MOL      -0.0571
     24 C24         5.8107   27.1060    2.2842 C.ar        1 MOL      -0.0632
     25 C25         6.6607   26.7820    1.2138 C.ar        1 MOL      -0.0635
     26 C26         7.9638   26.3282    1.4734 C.ar        1 MOL      -0.0632
     27 C27         8.4216   26.2244    2.7999 C.ar        1 MOL      -0.0571
     28 O28         1.6228   34.4769    1.3806 O.co2       1 MOL      -0.5638
     29 O29         3.7993   35.1783    1.7107 O.co2       1 MOL      -0.5638
     30 H1          6.9581   28.8597    5.3198 H           1 MOL       0.2176
     31 H2          2.2369   31.2153    7.2447 H           1 MOL       0.2187
     32 H3          3.8819   27.9869    9.5889 H           1 MOL       0.0849
     33 H4          5.8122   27.1680    8.4100 H           1 MOL       0.0586
     34 H5          8.2157   27.8574    8.3088 H           1 MOL       0.0537
     35 H6          9.6978   26.0214    8.7357 H           1 MOL       0.0591
     36 H7         10.1680   24.4081    6.9881 H           1 MOL       0.0524
     37 H8          9.1860   24.6498    4.8248 H           1 MOL       0.0594
     38 H9          0.9385   32.2413    5.6908 H           1 MOL       0.0545
     39 H10         0.7812   33.6409    3.7682 H           1 MOL       0.0622
     40 H11         4.9375   33.2477    3.1446 H           1 MOL       0.0622
     41 H12         5.1042   31.8799    5.0695 H           1 MOL       0.0545
     42 H13         5.5997   27.1842    4.3630 H           1 MOL       0.0606
     43 H14         4.8582   27.4369    2.0979 H           1 MOL       0.0613
     44 H15         6.3368   26.8801    0.2512 H           1 MOL       0.0603
     45 H16         8.5857   26.0819    0.6987 H           1 MOL       0.0613
     46 H17         9.3848   25.9130    2.9496 H           1 MOL       0.0606
@<TRIPOS>BOND
     1     1     5  ar
     2     1     6  ar
     3     6     2  ar
     4     2     7  ar
     5     7     3   1
     6     3     9   1
     7     6     4   1
     8     4    16   1
     9     5     8  ar
    10     7     8  ar
    11     9    10  ar
    12     9    14  ar
    13    10    11  ar
    14    11    12  ar
    15    12    13  ar
    16    13    14  ar
    17    14    15   1
    18    15    23  ar
    19    15    27  ar
    20    16    17  ar
    21    16    21  ar
    22    17    18  ar
    23    18    19  ar
    24    19    20  ar
    25    19    22   1
    26    20    21  ar
    27    22    28  ar
    28    22    29  ar
    29    23    24  ar
    30    24    25  ar
    31    25    26  ar
    32    26    27  ar
    33     3    30   1
    34     4    31   1
    35     5    32   1
    36     8    33   1
    37    10    34   1
    38    11    35   1
    39    12    36   1
    40    13    37   1
    41    17    38   1
    42    18    39   1
    43    20    40   1
    44    21    41   1
    45    23    42   1
    46    24    43   1
    47    25    44   1
    48    26    45   1
    49    27    46   1
@<TRIPOS>SUBSTRUCTURE
     1  MOL      5

