@<TRIPOS>MOLECULE
3uo4_ligand_059
    46    49
SMALL
GAST_HUCK
****
This file was generated by PARSER (from files_GN.cpp)

@<TRIPOS>ATOM
      1 N01         4.2414   29.5732    3.9083 N.ar        1 MOL      -0.2685
      2 N02         5.7122   28.7374    5.5371 N.ar        1 MOL      -0.2339
      3 N03         7.0167   26.7935    5.0737 N.pl3       1 MOL      -0.2537
      4 N04         4.4545   30.6486    6.0246 N.pl3       1 MOL      -0.2427
      5 C05         4.5522   28.5484    3.0694 C.ar        1 MOL       0.0015
      6 C06         4.7958   29.6717    5.1516 C.ar        1 MOL       0.1962
      7 C07         6.0822   27.7128    4.7240 C.ar        1 MOL       0.1353
      8 C08         5.4738   27.5681    3.4712 C.ar        1 MOL      -0.0013
      9 C09         7.8125   26.7988    6.1687 C.ar        1 MOL       0.0745
     10 C10         7.7809   25.6038    6.9237 C.ar        1 MOL      -0.0363
     11 C11         8.6266   25.4268    8.0308 C.ar        1 MOL      -0.0708
     12 C12         9.5690   26.4141    8.3586 C.ar        1 MOL      -0.0722
     13 C13         9.6388   27.5886    7.5964 C.ar        1 MOL      -0.0625
     14 C14         8.7585   27.8213    6.5039 C.ar        1 MOL       0.0075
     15 C15         8.8737   29.0624    5.7913 C.ar        1 MOL      -0.0223
     16 C16         3.5527   31.6414    5.7802 C.ar        1 MOL       0.0684
     17 C17         2.4209   31.7611    6.6116 C.ar        1 MOL      -0.0343
     18 C18         1.4578   32.7591    6.3720 C.ar        1 MOL      -0.0571
     19 C19         1.6218   33.6942    5.3209 C.ar        1 MOL      -0.0016
     20 C20         2.7917   33.5949    4.5206 C.ar        1 MOL      -0.0571
     21 C21         3.7403   32.5825    4.7475 C.ar        1 MOL      -0.0343
     22 C22         0.6524   34.7003    5.0768 C.2         1 MOL       0.0553
     23 C23         8.6662   29.1374    4.3862 C.ar        1 MOL      -0.0571
     24 C24         8.7618   30.3645    3.7040 C.ar        1 MOL      -0.0632
     25 C25         9.1049   31.5407    4.3988 C.ar        1 MOL      -0.0635
     26 C26         9.3631   31.4816    5.7855 C.ar        1 MOL      -0.0632
     27 C27         9.2265   30.2620    6.4787 C.ar        1 MOL      -0.0571
     28 O28        -0.5077   34.7673    5.7762 O.co2       1 MOL      -0.5638
     29 O29         0.8257   35.6426    4.1203 O.co2       1 MOL      -0.5638
     30 H1          7.1247   26.0466    4.4588 H           1 MOL       0.2176
     31 H2          4.7788   30.5513    6.9287 H           1 MOL       0.2187
     32 H3          4.1094   28.4933    2.1462 H           1 MOL       0.0849
     33 H4          5.7330   26.8153    2.8387 H           1 MOL       0.0586
     34 H5          7.1074   24.8705    6.6894 H           1 MOL       0.0537
     35 H6          8.5631   24.5731    8.5935 H           1 MOL       0.0591
     36 H7         10.2214   26.2602    9.1333 H           1 MOL       0.0524
     37 H8         10.3564   28.2819    7.8644 H           1 MOL       0.0594
     38 H9          2.2671   31.0934    7.3790 H           1 MOL       0.0545
     39 H10         0.6323   32.7902    6.9690 H           1 MOL       0.0622
     40 H11         2.9577   34.2547    3.7543 H           1 MOL       0.0622
     41 H12         4.5712   32.5363    4.1562 H           1 MOL       0.0545
     42 H13         8.4546   28.2898    3.8366 H           1 MOL       0.0606
     43 H14         8.5873   30.3963    2.6885 H           1 MOL       0.0613
     44 H15         9.2095   32.4269    3.8979 H           1 MOL       0.0603
     45 H16         9.6500   32.3222    6.2913 H           1 MOL       0.0613
     46 H17         9.3858   30.2613    7.4980 H           1 MOL       0.0606
@<TRIPOS>BOND
     1     1     5  ar
     2     1     6  ar
     3     6     2  ar
     4     2     7  ar
     5     7     3   1
     6     3     9   1
     7     6     4   1
     8     4    16   1
     9     5     8  ar
    10     7     8  ar
    11     9    10  ar
    12     9    14  ar
    13    10    11  ar
    14    11    12  ar
    15    12    13  ar
    16    13    14  ar
    17    14    15   1
    18    15    23  ar
    19    15    27  ar
    20    16    17  ar
    21    16    21  ar
    22    17    18  ar
    23    18    19  ar
    24    19    20  ar
    25    19    22   1
    26    20    21  ar
    27    22    28  ar
    28    22    29  ar
    29    23    24  ar
    30    24    25  ar
    31    25    26  ar
    32    26    27  ar
    33     3    30   1
    34     4    31   1
    35     5    32   1
    36     8    33   1
    37    10    34   1
    38    11    35   1
    39    12    36   1
    40    13    37   1
    41    17    38   1
    42    18    39   1
    43    20    40   1
    44    21    41   1
    45    23    42   1
    46    24    43   1
    47    25    44   1
    48    26    45   1
    49    27    46   1
@<TRIPOS>SUBSTRUCTURE
     1  MOL      5

