@<TRIPOS>MOLECULE
3uo4_ligand_014
    46    49
SMALL
GAST_HUCK
****
This file was generated by PARSER (from files_GN.cpp)

@<TRIPOS>ATOM
      1 N01         5.8451   29.5096    8.1975 N.ar        1 MOL      -0.2685
      2 N02         5.3793   29.9057    5.9417 N.ar        1 MOL      -0.2339
      3 N03         6.4966   28.8787    4.1964 N.pl3       1 MOL      -0.2537
      4 N04         4.1609   31.0044    7.7105 N.pl3       1 MOL      -0.2427
      5 C05         6.7938   28.5941    7.8792 C.ar        1 MOL       0.0015
      6 C06         5.1261   30.1699    7.2550 C.ar        1 MOL       0.1962
      7 C07         6.3221   29.0139    5.5354 C.ar        1 MOL       0.1353
      8 C08         7.0419   28.3000    6.5260 C.ar        1 MOL      -0.0013
      9 C09         7.4699   28.1716    3.5417 C.ar        1 MOL       0.0745
     10 C10         7.0228   27.2557    2.5635 C.ar        1 MOL      -0.0363
     11 C11         7.9342   26.4541    1.8557 C.ar        1 MOL      -0.0708
     12 C12         9.3109   26.5725    2.1078 C.ar        1 MOL      -0.0722
     13 C13         9.7790   27.5184    3.0337 C.ar        1 MOL      -0.0625
     14 C14         8.8763   28.3446    3.7521 C.ar        1 MOL       0.0075
     15 C15         9.3990   29.3297    4.6363 C.ar        1 MOL      -0.0223
     16 C16         3.2538   31.7220    6.9882 C.ar        1 MOL       0.0684
     17 C17         1.9188   31.7353    7.4453 C.ar        1 MOL      -0.0343
     18 C18         0.9304   32.4524    6.7542 C.ar        1 MOL      -0.0571
     19 C19         1.2457   33.2123    5.6027 C.ar        1 MOL      -0.0016
     20 C20         2.5930   33.2213    5.1644 C.ar        1 MOL      -0.0571
     21 C21         3.5809   32.4862    5.8443 C.ar        1 MOL      -0.0343
     22 C22         0.2308   33.9185    4.9089 C.2         1 MOL       0.0553
     23 C23         8.9630   30.6762    4.5566 C.ar        1 MOL      -0.0571
     24 C24         9.3757   31.6277    5.5047 C.ar        1 MOL      -0.0632
     25 C25        10.2464   31.2531    6.5425 C.ar        1 MOL      -0.0635
     26 C26        10.7482   29.9395    6.5978 C.ar        1 MOL      -0.0632
     27 C27        10.3303   28.9872    5.6501 C.ar        1 MOL      -0.0571
     28 O28         0.3415   34.1933    3.5872 O.co2       1 MOL      -0.5638
     29 O29        -0.8618   34.4058    5.5481 O.co2       1 MOL      -0.5638
     30 H1          5.8299   29.3035    3.6407 H           1 MOL       0.2176
     31 H2          4.0270   30.9855    8.6709 H           1 MOL       0.2187
     32 H3          7.3034   28.1149    8.6212 H           1 MOL       0.0849
     33 H4          7.7303   27.5847    6.2858 H           1 MOL       0.0586
     34 H5          6.0227   27.1423    2.3782 H           1 MOL       0.0537
     35 H6          7.5990   25.7832    1.1600 H           1 MOL       0.0591
     36 H7          9.9771   25.9852    1.5935 H           1 MOL       0.0524
     37 H8         10.7890   27.6139    3.1644 H           1 MOL       0.0594
     38 H9          1.6487   31.1888    8.2690 H           1 MOL       0.0545
     39 H10        -0.0369   32.3857    7.0780 H           1 MOL       0.0622
     40 H11         2.8684   33.7745    4.3476 H           1 MOL       0.0622
     41 H12         4.5450   32.5259    5.5084 H           1 MOL       0.0545
     42 H13         8.3288   30.9700    3.8113 H           1 MOL       0.0606
     43 H14         9.0531   32.5953    5.4335 H           1 MOL       0.0613
     44 H15        10.5227   31.9387    7.2490 H           1 MOL       0.0603
     45 H16        11.4079   29.6748    7.3356 H           1 MOL       0.0613
     46 H17        10.6930   28.0315    5.7236 H           1 MOL       0.0606
@<TRIPOS>BOND
     1     1     5  ar
     2     1     6  ar
     3     6     2  ar
     4     2     7  ar
     5     7     3   1
     6     3     9   1
     7     6     4   1
     8     4    16   1
     9     5     8  ar
    10     7     8  ar
    11     9    10  ar
    12     9    14  ar
    13    10    11  ar
    14    11    12  ar
    15    12    13  ar
    16    13    14  ar
    17    14    15   1
    18    15    23  ar
    19    15    27  ar
    20    16    17  ar
    21    16    21  ar
    22    17    18  ar
    23    18    19  ar
    24    19    20  ar
    25    19    22   1
    26    20    21  ar
    27    22    28  ar
    28    22    29  ar
    29    23    24  ar
    30    24    25  ar
    31    25    26  ar
    32    26    27  ar
    33     3    30   1
    34     4    31   1
    35     5    32   1
    36     8    33   1
    37    10    34   1
    38    11    35   1
    39    12    36   1
    40    13    37   1
    41    17    38   1
    42    18    39   1
    43    20    40   1
    44    21    41   1
    45    23    42   1
    46    24    43   1
    47    25    44   1
    48    26    45   1
    49    27    46   1
@<TRIPOS>SUBSTRUCTURE
     1  MOL      5

