@<TRIPOS>MOLECULE
3uo4_ligand_022
    46    49
SMALL
GAST_HUCK
****
This file was generated by PARSER (from files_GN.cpp)

@<TRIPOS>ATOM
      1 N01         4.1199   31.2511    5.7282 N.ar        1 MOL      -0.2685
      2 N02         4.9609   29.8547    4.0634 N.ar        1 MOL      -0.2339
      3 N03         6.4324   28.1152    4.4513 N.pl3       1 MOL      -0.2537
      4 N04         3.5096   31.5785    3.4475 N.pl3       1 MOL      -0.2427
      5 C05         4.8268   30.5976    6.6814 C.ar        1 MOL       0.0015
      6 C06         4.1695   30.9009    4.4153 C.ar        1 MOL       0.1962
      7 C07         5.6997   29.1405    4.9537 C.ar        1 MOL       0.1353
      8 C08         5.6439   29.5143    6.3158 C.ar        1 MOL      -0.0013
      9 C09         7.2971   27.3065    5.1327 C.ar        1 MOL       0.0745
     10 C10         7.0176   25.9221    5.1426 C.ar        1 MOL      -0.0363
     11 C11         7.8462   25.0306    5.8451 C.ar        1 MOL      -0.0708
     12 C12         8.9813   25.5082    6.5222 C.ar        1 MOL      -0.0722
     13 C13         9.2975   26.8748    6.4771 C.ar        1 MOL      -0.0625
     14 C14         8.4631   27.7974    5.7900 C.ar        1 MOL       0.0075
     15 C15         8.8422   29.1683    5.7333 C.ar        1 MOL      -0.0223
     16 C16         2.6212   32.6024    3.6190 C.ar        1 MOL       0.0684
     17 C17         2.6975   33.7261    2.7682 C.ar        1 MOL      -0.0343
     18 C18         1.8089   34.8066    2.9144 C.ar        1 MOL      -0.0571
     19 C19         0.7899   34.7866    3.9007 C.ar        1 MOL      -0.0016
     20 C20         0.6965   33.6415    4.7296 C.ar        1 MOL      -0.0571
     21 C21         1.5942   32.5681    4.5872 C.ar        1 MOL      -0.0343
     22 C22        -0.1194   35.8678    4.0516 C.2         1 MOL       0.0553
     23 C23         8.7745   29.8992    4.5216 C.ar        1 MOL      -0.0571
     24 C24         9.1077   31.2640    4.4869 C.ar        1 MOL      -0.0632
     25 C25         9.5554   31.9099    5.6519 C.ar        1 MOL      -0.0635
     26 C26         9.6373   31.1964    6.8610 C.ar        1 MOL      -0.0632
     27 C27         9.2694   29.8426    6.9064 C.ar        1 MOL      -0.0571
     28 O28        -1.0467   35.8781    5.0430 O.co2       1 MOL      -0.5638
     29 O29        -0.1485   36.9098    3.1867 O.co2       1 MOL      -0.5638
     30 H1          6.2654   27.8848    3.5220 H           1 MOL       0.2176
     31 H2          3.7408   31.3576    2.5332 H           1 MOL       0.2187
     32 H3          4.7546   30.8980    7.6540 H           1 MOL       0.0849
     33 H4          6.1673   29.0073    7.0309 H           1 MOL       0.0586
     34 H5          6.1963   25.5548    4.6522 H           1 MOL       0.0537
     35 H6          7.6166   24.0381    5.8684 H           1 MOL       0.0591
     36 H7          9.5858   24.8527    7.0264 H           1 MOL       0.0524
     37 H8         10.1502   27.1906    6.9515 H           1 MOL       0.0594
     38 H9          3.4189   33.7685    2.0418 H           1 MOL       0.0545
     39 H10         1.9076   35.6092    2.2858 H           1 MOL       0.0622
     40 H11        -0.0341   33.5694    5.4428 H           1 MOL       0.0622
     41 H12         1.4742   31.7451    5.1826 H           1 MOL       0.0545
     42 H13         8.4834   29.4342    3.6547 H           1 MOL       0.0606
     43 H14         9.0340   31.7827    3.6073 H           1 MOL       0.0613
     44 H15         9.8067   32.8962    5.6201 H           1 MOL       0.0603
     45 H16         9.9463   31.6763    7.7069 H           1 MOL       0.0613
     46 H17         9.2887   29.3571    7.8054 H           1 MOL       0.0606
@<TRIPOS>BOND
     1     1     5  ar
     2     1     6  ar
     3     6     2  ar
     4     2     7  ar
     5     7     3   1
     6     3     9   1
     7     6     4   1
     8     4    16   1
     9     5     8  ar
    10     7     8  ar
    11     9    10  ar
    12     9    14  ar
    13    10    11  ar
    14    11    12  ar
    15    12    13  ar
    16    13    14  ar
    17    14    15   1
    18    15    23  ar
    19    15    27  ar
    20    16    17  ar
    21    16    21  ar
    22    17    18  ar
    23    18    19  ar
    24    19    20  ar
    25    19    22   1
    26    20    21  ar
    27    22    28  ar
    28    22    29  ar
    29    23    24  ar
    30    24    25  ar
    31    25    26  ar
    32    26    27  ar
    33     3    30   1
    34     4    31   1
    35     5    32   1
    36     8    33   1
    37    10    34   1
    38    11    35   1
    39    12    36   1
    40    13    37   1
    41    17    38   1
    42    18    39   1
    43    20    40   1
    44    21    41   1
    45    23    42   1
    46    24    43   1
    47    25    44   1
    48    26    45   1
    49    27    46   1
@<TRIPOS>SUBSTRUCTURE
     1  MOL      5

