@<TRIPOS>MOLECULE
3uo4_ligand_028
    46    49
SMALL
GAST_HUCK
****
This file was generated by PARSER (from files_GN.cpp)

@<TRIPOS>ATOM
      1 N01         4.9297   29.6683    5.0003 N.ar        1 MOL      -0.2685
      2 N02         6.9919   30.4717    5.7612 N.ar        1 MOL      -0.2339
      3 N03         8.3803   29.2926    7.1888 N.pl3       1 MOL      -0.2537
      4 N04         5.7157   31.8063    4.3316 N.pl3       1 MOL      -0.2427
      5 C05         5.0744   28.5317    5.7180 C.ar        1 MOL       0.0015
      6 C06         5.8736   30.6466    5.0071 C.ar        1 MOL       0.1962
      7 C07         7.2152   29.3500    6.4978 C.ar        1 MOL       0.1353
      8 C08         6.2303   28.3335    6.4891 C.ar        1 MOL      -0.0013
      9 C09         8.7718   28.2526    7.9776 C.ar        1 MOL       0.0745
     10 C10         8.3471   28.2613    9.3232 C.ar        1 MOL      -0.0363
     11 C11         8.6077   27.1637   10.1599 C.ar        1 MOL      -0.0708
     12 C12         9.2968   26.0489    9.6562 C.ar        1 MOL      -0.0722
     13 C13         9.7376   26.0369    8.3208 C.ar        1 MOL      -0.0625
     14 C14         9.4847   27.1344    7.4621 C.ar        1 MOL       0.0075
     15 C15         9.9122   27.0727    6.1052 C.ar        1 MOL      -0.0223
     16 C16         4.6532   32.1164    3.5401 C.ar        1 MOL       0.0684
     17 C17         4.3721   31.3825    2.3683 C.ar        1 MOL      -0.0343
     18 C18         3.2685   31.7215    1.5635 C.ar        1 MOL      -0.0571
     19 C19         2.4075   32.7846    1.9243 C.ar        1 MOL      -0.0016
     20 C20         2.7051   33.5239    3.0944 C.ar        1 MOL      -0.0571
     21 C21         3.8321   33.2096    3.8792 C.ar        1 MOL      -0.0343
     22 C22         1.2654   33.0796    1.1399 C.2         1 MOL       0.0553
     23 C23         9.4990   26.0060    5.2707 C.ar        1 MOL      -0.0571
     24 C24         9.8885   25.9598    3.9192 C.ar        1 MOL      -0.0632
     25 C25        10.7036   26.9731    3.3861 C.ar        1 MOL      -0.0635
     26 C26        11.1357   28.0295    4.2065 C.ar        1 MOL      -0.0632
     27 C27        10.7445   28.0792    5.5582 C.ar        1 MOL      -0.0571
     28 O28         0.1516   33.6096    1.6940 O.co2       1 MOL      -0.5638
     29 O29         1.2070   32.7584   -0.1734 O.co2       1 MOL      -0.5638
     30 H1          8.9747   30.0581    7.1332 H           1 MOL       0.2176
     31 H2          6.3556   32.5100    4.5125 H           1 MOL       0.2187
     32 H3          4.3376   27.8299    5.6966 H           1 MOL       0.0849
     33 H4          6.3340   27.4742    7.0309 H           1 MOL       0.0586
     34 H5          7.8223   29.0587    9.6907 H           1 MOL       0.0537
     35 H6          8.2921   27.1766   11.1326 H           1 MOL       0.0591
     36 H7          9.4777   25.2466   10.2619 H           1 MOL       0.0524
     37 H8         10.2454   25.2163    7.9813 H           1 MOL       0.0594
     38 H9          4.9756   30.6044    2.0899 H           1 MOL       0.0545
     39 H10         3.0883   31.1635    0.7246 H           1 MOL       0.0622
     40 H11         2.1114   34.3066    3.3813 H           1 MOL       0.0622
     41 H12         4.0293   33.7591    4.7196 H           1 MOL       0.0545
     42 H13         8.8952   25.2639    5.6356 H           1 MOL       0.0606
     43 H14         9.5741   25.1910    3.3232 H           1 MOL       0.0613
     44 H15        10.9810   26.9409    2.4026 H           1 MOL       0.0603
     45 H16        11.7345   28.7622    3.8189 H           1 MOL       0.0613
     46 H17        11.0776   28.8525    6.1402 H           1 MOL       0.0606
@<TRIPOS>BOND
     1     1     5  ar
     2     1     6  ar
     3     6     2  ar
     4     2     7  ar
     5     7     3   1
     6     3     9   1
     7     6     4   1
     8     4    16   1
     9     5     8  ar
    10     7     8  ar
    11     9    10  ar
    12     9    14  ar
    13    10    11  ar
    14    11    12  ar
    15    12    13  ar
    16    13    14  ar
    17    14    15   1
    18    15    23  ar
    19    15    27  ar
    20    16    17  ar
    21    16    21  ar
    22    17    18  ar
    23    18    19  ar
    24    19    20  ar
    25    19    22   1
    26    20    21  ar
    27    22    28  ar
    28    22    29  ar
    29    23    24  ar
    30    24    25  ar
    31    25    26  ar
    32    26    27  ar
    33     3    30   1
    34     4    31   1
    35     5    32   1
    36     8    33   1
    37    10    34   1
    38    11    35   1
    39    12    36   1
    40    13    37   1
    41    17    38   1
    42    18    39   1
    43    20    40   1
    44    21    41   1
    45    23    42   1
    46    24    43   1
    47    25    44   1
    48    26    45   1
    49    27    46   1
@<TRIPOS>SUBSTRUCTURE
     1  MOL      5

