@<TRIPOS>MOLECULE
3uo4_ligand_086
    46    49
SMALL
GAST_HUCK
****
This file was generated by PARSER (from files_GN.cpp)

@<TRIPOS>ATOM
      1 N01         4.5742   31.5238   -0.1580 N.ar        1 MOL      -0.2685
      2 N02         5.7469   31.1865    1.8182 N.ar        1 MOL      -0.2339
      3 N03         8.0041   30.5011    1.8517 N.pl3       1 MOL      -0.2537
      4 N04         3.4859   31.9516    1.8567 N.pl3       1 MOL      -0.2427
      5 C05         5.6609   31.1645   -0.8898 C.ar        1 MOL       0.0015
      6 C06         4.6012   31.5549    1.1986 C.ar        1 MOL       0.1962
      7 C07         6.8790   30.8216    1.1679 C.ar        1 MOL       0.1353
      8 C08         6.8606   30.8188   -0.2401 C.ar        1 MOL      -0.0013
      9 C09         8.1077   30.4295    3.2153 C.ar        1 MOL       0.0745
     10 C10         8.9581   31.3647    3.8436 C.ar        1 MOL      -0.0363
     11 C11         9.0954   31.3883    5.2418 C.ar        1 MOL      -0.0708
     12 C12         8.3915   30.4632    6.0281 C.ar        1 MOL      -0.0722
     13 C13         7.5446   29.5221    5.4162 C.ar        1 MOL      -0.0625
     14 C14         7.3858   29.4876    4.0084 C.ar        1 MOL       0.0075
     15 C15         6.5127   28.5211    3.4266 C.ar        1 MOL      -0.0223
     16 C16         3.2528   32.1004    3.2030 C.ar        1 MOL       0.0684
     17 C17         1.9021   32.2680    3.5827 C.ar        1 MOL      -0.0343
     18 C18         1.5294   32.3727    4.9346 C.ar        1 MOL      -0.0571
     19 C19         2.5015   32.3277    5.9584 C.ar        1 MOL      -0.0016
     20 C20         3.8593   32.2241    5.5860 C.ar        1 MOL      -0.0571
     21 C21         4.2284   32.1202    4.2334 C.ar        1 MOL      -0.0343
     22 C22         2.1247   32.3862    7.3211 C.2         1 MOL       0.0553
     23 C23         5.1642   28.4206    3.8504 C.ar        1 MOL      -0.0571
     24 C24         4.2741   27.5324    3.2184 C.ar        1 MOL      -0.0632
     25 C25         4.7244   26.7212    2.1638 C.ar        1 MOL      -0.0635
     26 C26         6.0591   26.8040    1.7319 C.ar        1 MOL      -0.0632
     27 C27         6.9505   27.6854    2.3690 C.ar        1 MOL      -0.0571
     28 O28         0.8887   32.0075    7.7163 O.co2       1 MOL      -0.5638
     29 O29         3.0136   32.6783    8.2979 O.co2       1 MOL      -0.5638
     30 H1          8.8180   30.3762    1.3379 H           1 MOL       0.2176
     31 H2          2.7222   32.1293    1.2818 H           1 MOL       0.2187
     32 H3          5.6035   31.1544   -1.9099 H           1 MOL       0.0849
     33 H4          7.6895   30.5581   -0.7807 H           1 MOL       0.0586
     34 H5          9.4614   32.0601    3.2868 H           1 MOL       0.0537
     35 H6          9.7072   32.0787    5.6865 H           1 MOL       0.0591
     36 H7          8.4986   30.4722    7.0454 H           1 MOL       0.0524
     37 H8          7.0541   28.8498    6.0126 H           1 MOL       0.0594
     38 H9          1.1678   32.2999    2.8688 H           1 MOL       0.0545
     39 H10         0.5411   32.4914    5.1602 H           1 MOL       0.0622
     40 H11         4.5941   32.2008    6.2970 H           1 MOL       0.0622
     41 H12         5.2235   32.0692    4.0271 H           1 MOL       0.0545
     42 H13         4.8103   29.0127    4.6064 H           1 MOL       0.0606
     43 H14         3.2984   27.4817    3.5190 H           1 MOL       0.0613
     44 H15         4.0837   26.0639    1.7180 H           1 MOL       0.0603
     45 H16         6.3820   26.2245    0.9542 H           1 MOL       0.0613
     46 H17         7.9210   27.7201    2.0450 H           1 MOL       0.0606
@<TRIPOS>BOND
     1     1     5  ar
     2     1     6  ar
     3     6     2  ar
     4     2     7  ar
     5     7     3   1
     6     3     9   1
     7     6     4   1
     8     4    16   1
     9     5     8  ar
    10     7     8  ar
    11     9    10  ar
    12     9    14  ar
    13    10    11  ar
    14    11    12  ar
    15    12    13  ar
    16    13    14  ar
    17    14    15   1
    18    15    23  ar
    19    15    27  ar
    20    16    17  ar
    21    16    21  ar
    22    17    18  ar
    23    18    19  ar
    24    19    20  ar
    25    19    22   1
    26    20    21  ar
    27    22    28  ar
    28    22    29  ar
    29    23    24  ar
    30    24    25  ar
    31    25    26  ar
    32    26    27  ar
    33     3    30   1
    34     4    31   1
    35     5    32   1
    36     8    33   1
    37    10    34   1
    38    11    35   1
    39    12    36   1
    40    13    37   1
    41    17    38   1
    42    18    39   1
    43    20    40   1
    44    21    41   1
    45    23    42   1
    46    24    43   1
    47    25    44   1
    48    26    45   1
    49    27    46   1
@<TRIPOS>SUBSTRUCTURE
     1  MOL      5

