@<TRIPOS>MOLECULE
3uo4_ligand_037
    46    49
SMALL
GAST_HUCK
****
This file was generated by PARSER (from files_GN.cpp)

@<TRIPOS>ATOM
      1 N01         7.2422   30.9450    1.4942 N.ar        1 MOL      -0.2685
      2 N02         7.5951   29.4249    3.2099 N.ar        1 MOL      -0.2339
      3 N03         9.7307   28.4250    3.5581 N.pl3       1 MOL      -0.2537
      4 N04         5.4293   30.1747    2.8680 N.pl3       1 MOL      -0.2427
      5 C05         8.5464   30.9079    1.1543 C.ar        1 MOL       0.0015
      6 C06         6.7330   30.2068    2.5150 C.ar        1 MOL       0.1962
      7 C07         8.9153   29.2945    2.9052 C.ar        1 MOL       0.1353
      8 C08         9.4353   30.0787    1.8564 C.ar        1 MOL      -0.0013
      9 C09         9.3749   27.5036    4.5113 C.ar        1 MOL       0.0745
     10 C10        10.2086   27.4622    5.6538 C.ar        1 MOL      -0.0363
     11 C11         9.9211   26.6034    6.7254 C.ar        1 MOL      -0.0708
     12 C12         8.8171   25.7396    6.6552 C.ar        1 MOL      -0.0722
     13 C13         7.9968   25.7364    5.5146 C.ar        1 MOL      -0.0625
     14 C14         8.2696   26.6002    4.4286 C.ar        1 MOL       0.0075
     15 C15         7.4330   26.5177    3.2784 C.ar        1 MOL      -0.0223
     16 C16         4.3819   30.8157    2.2608 C.ar        1 MOL       0.0684
     17 C17         3.2881   31.2016    3.0686 C.ar        1 MOL      -0.0343
     18 C18         2.2232   31.9464    2.5341 C.ar        1 MOL      -0.0571
     19 C19         2.2069   32.3138    1.1644 C.ar        1 MOL      -0.0016
     20 C20         3.2612   31.8520    0.3387 C.ar        1 MOL      -0.0571
     21 C21         4.3167   31.0909    0.8761 C.ar        1 MOL      -0.0343
     22 C22         1.1514   33.0931    0.6191 C.2         1 MOL       0.0553
     23 C23         6.0610   26.8505    3.3722 C.ar        1 MOL      -0.0571
     24 C24         5.2726   26.9798    2.2113 C.ar        1 MOL      -0.0632
     25 C25         5.8452   26.7491    0.9507 C.ar        1 MOL      -0.0635
     26 C26         7.1909   26.3572    0.8454 C.ar        1 MOL      -0.0632
     27 C27         7.9819   26.2432    2.0033 C.ar        1 MOL      -0.0571
     28 O28         1.1518   33.4844   -0.6750 O.co2       1 MOL      -0.5638
     29 O29         0.1649   33.5787    1.4024 O.co2       1 MOL      -0.5638
     30 H1         10.6808   28.5169    3.3803 H           1 MOL       0.2176
     31 H2          5.2159   29.6705    3.6715 H           1 MOL       0.2187
     32 H3          8.8773   31.4715    0.3667 H           1 MOL       0.0849
     33 H4         10.4196   30.0246    1.5870 H           1 MOL       0.0586
     34 H5         11.0192   28.0892    5.7243 H           1 MOL       0.0537
     35 H6         10.5114   26.6103    7.5585 H           1 MOL       0.0591
     36 H7          8.6148   25.1083    7.4356 H           1 MOL       0.0524
     37 H8          7.2086   25.0898    5.4845 H           1 MOL       0.0594
     38 H9          3.2760   30.9635    4.0639 H           1 MOL       0.0545
     39 H10         1.4645   32.2311    3.1573 H           1 MOL       0.0622
     40 H11         3.2755   32.0726   -0.6595 H           1 MOL       0.0622
     41 H12         5.0322   30.7397    0.2351 H           1 MOL       0.0545
     42 H13         5.6448   27.0859    4.2779 H           1 MOL       0.0606
     43 H14         4.2999   27.2869    2.2850 H           1 MOL       0.0613
     44 H15         5.2866   26.8806    0.1036 H           1 MOL       0.0603
     45 H16         7.6007   26.1781   -0.0744 H           1 MOL       0.0613
     46 H17         8.9689   25.9874    1.9062 H           1 MOL       0.0606
@<TRIPOS>BOND
     1     1     5  ar
     2     1     6  ar
     3     6     2  ar
     4     2     7  ar
     5     7     3   1
     6     3     9   1
     7     6     4   1
     8     4    16   1
     9     5     8  ar
    10     7     8  ar
    11     9    10  ar
    12     9    14  ar
    13    10    11  ar
    14    11    12  ar
    15    12    13  ar
    16    13    14  ar
    17    14    15   1
    18    15    23  ar
    19    15    27  ar
    20    16    17  ar
    21    16    21  ar
    22    17    18  ar
    23    18    19  ar
    24    19    20  ar
    25    19    22   1
    26    20    21  ar
    27    22    28  ar
    28    22    29  ar
    29    23    24  ar
    30    24    25  ar
    31    25    26  ar
    32    26    27  ar
    33     3    30   1
    34     4    31   1
    35     5    32   1
    36     8    33   1
    37    10    34   1
    38    11    35   1
    39    12    36   1
    40    13    37   1
    41    17    38   1
    42    18    39   1
    43    20    40   1
    44    21    41   1
    45    23    42   1
    46    24    43   1
    47    25    44   1
    48    26    45   1
    49    27    46   1
@<TRIPOS>SUBSTRUCTURE
     1  MOL      5

