@<TRIPOS>MOLECULE
3uo4_ligand_096
    46    49
SMALL
GAST_HUCK
****
This file was generated by PARSER (from files_GN.cpp)

@<TRIPOS>ATOM
      1 N01         4.1041   33.4168    6.9155 N.ar        1 MOL      -0.2685
      2 N02         3.6127   31.4924    5.6725 N.ar        1 MOL      -0.2339
      3 N03         2.8672   31.5233    3.4654 N.pl3       1 MOL      -0.2537
      4 N04         4.4204   31.3983    7.9439 N.pl3       1 MOL      -0.2427
      5 C05         3.7352   34.2033    5.8817 C.ar        1 MOL       0.0015
      6 C06         4.0529   32.0684    6.8312 C.ar        1 MOL       0.1962
      7 C07         3.2317   32.2159    4.5825 C.ar        1 MOL       0.1353
      8 C08         3.3048   33.6282    4.6743 C.ar        1 MOL      -0.0013
      9 C09         2.4557   32.0575    2.2718 C.ar        1 MOL       0.0745
     10 C10         1.3362   32.9280    2.2737 C.ar        1 MOL      -0.0363
     11 C11         0.9109   33.5650    1.0981 C.ar        1 MOL      -0.0708
     12 C12         1.5786   33.3144   -0.1067 C.ar        1 MOL      -0.0722
     13 C13         2.6641   32.4206   -0.1332 C.ar        1 MOL      -0.0625
     14 C14         3.1320   31.7726    1.0437 C.ar        1 MOL       0.0075
     15 C15         4.2714   30.8954    0.9546 C.ar        1 MOL      -0.0223
     16 C16         4.4694   30.0555    8.0738 C.ar        1 MOL       0.0684
     17 C17         3.8317   29.4577    9.1759 C.ar        1 MOL      -0.0343
     18 C18         3.8508   28.0608    9.3255 C.ar        1 MOL      -0.0571
     19 C19         4.5470   27.2425    8.4045 C.ar        1 MOL      -0.0016
     20 C20         5.2356   27.8597    7.3352 C.ar        1 MOL      -0.0571
     21 C21         5.1865   29.2527    7.1616 C.ar        1 MOL      -0.0343
     22 C22         4.5479   25.8403    8.5549 C.2         1 MOL       0.0553
     23 C23         4.3910   29.9518   -0.1034 C.ar        1 MOL      -0.0571
     24 C24         5.5097   29.1004   -0.2027 C.ar        1 MOL      -0.0632
     25 C25         6.5282   29.1569    0.7647 C.ar        1 MOL      -0.0635
     26 C26         6.4374   30.0861    1.8150 C.ar        1 MOL      -0.0632
     27 C27         5.3367   30.9623    1.8918 C.ar        1 MOL      -0.0571
     28 O28         3.6423   25.2231    9.3470 O.co2       1 MOL      -0.5638
     29 O29         5.4555   25.0674    7.9202 O.co2       1 MOL      -0.5638
     30 H1          3.0060   30.5596    3.4904 H           1 MOL       0.2176
     31 H2          4.6077   31.9271    8.7368 H           1 MOL       0.2187
     32 H3          3.7917   35.2107    5.9854 H           1 MOL       0.0849
     33 H4          3.0910   34.2326    3.8818 H           1 MOL       0.0586
     34 H5          0.8278   33.1202    3.1426 H           1 MOL       0.0537
     35 H6          0.1257   34.2156    1.1243 H           1 MOL       0.0591
     36 H7          1.2695   33.7693   -0.9647 H           1 MOL       0.0524
     37 H8          3.1312   32.2711   -1.0323 H           1 MOL       0.0594
     38 H9          3.3243   30.0352    9.8520 H           1 MOL       0.0545
     39 H10         3.3566   27.6550   10.1245 H           1 MOL       0.0622
     40 H11         5.7627   27.2999    6.6600 H           1 MOL       0.0622
     41 H12         5.6974   29.6761    6.3835 H           1 MOL       0.0545
     42 H13         3.6597   29.8656   -0.8145 H           1 MOL       0.0606
     43 H14         5.5849   28.4423   -0.9821 H           1 MOL       0.0613
     44 H15         7.3375   28.5338    0.6992 H           1 MOL       0.0603
     45 H16         7.1801   30.1372    2.5158 H           1 MOL       0.0613
     46 H17         5.3359   31.6671    2.6325 H           1 MOL       0.0606
@<TRIPOS>BOND
     1     1     5  ar
     2     1     6  ar
     3     6     2  ar
     4     2     7  ar
     5     7     3   1
     6     3     9   1
     7     6     4   1
     8     4    16   1
     9     5     8  ar
    10     7     8  ar
    11     9    10  ar
    12     9    14  ar
    13    10    11  ar
    14    11    12  ar
    15    12    13  ar
    16    13    14  ar
    17    14    15   1
    18    15    23  ar
    19    15    27  ar
    20    16    17  ar
    21    16    21  ar
    22    17    18  ar
    23    18    19  ar
    24    19    20  ar
    25    19    22   1
    26    20    21  ar
    27    22    28  ar
    28    22    29  ar
    29    23    24  ar
    30    24    25  ar
    31    25    26  ar
    32    26    27  ar
    33     3    30   1
    34     4    31   1
    35     5    32   1
    36     8    33   1
    37    10    34   1
    38    11    35   1
    39    12    36   1
    40    13    37   1
    41    17    38   1
    42    18    39   1
    43    20    40   1
    44    21    41   1
    45    23    42   1
    46    24    43   1
    47    25    44   1
    48    26    45   1
    49    27    46   1
@<TRIPOS>SUBSTRUCTURE
     1  MOL      5

