@<TRIPOS>MOLECULE
3uo4_ligand_029
    46    49
SMALL
GAST_HUCK
****
This file was generated by PARSER (from files_GN.cpp)

@<TRIPOS>ATOM
      1 N01         7.3280   26.6136    2.7644 N.ar        1 MOL      -0.2685
      2 N02         6.3499   27.4982    4.6989 N.ar        1 MOL      -0.2339
      3 N03         4.6101   29.1181    4.5521 N.pl3       1 MOL      -0.2537
      4 N04         8.1963   25.9944    4.8321 N.pl3       1 MOL      -0.2427
      5 C05         6.4787   27.3251    1.9825 C.ar        1 MOL       0.0015
      6 C06         7.2681   26.6726    4.1217 C.ar        1 MOL       0.1962
      7 C07         5.4792   28.2527    3.9764 C.ar        1 MOL       0.1353
      8 C08         5.5068   28.1502    2.5722 C.ar        1 MOL      -0.0013
      9 C09         4.4877   29.4576    5.8735 C.ar        1 MOL       0.0745
     10 C10         3.1564   29.6311    6.3149 C.ar        1 MOL      -0.0363
     11 C11         2.8674   29.9297    7.6558 C.ar        1 MOL      -0.0708
     12 C12         3.9138   30.0601    8.5798 C.ar        1 MOL      -0.0722
     13 C13         5.2456   29.9554    8.1450 C.ar        1 MOL      -0.0625
     14 C14         5.5665   29.6963    6.7848 C.ar        1 MOL       0.0075
     15 C15         6.9404   29.7524    6.3825 C.ar        1 MOL      -0.0223
     16 C16         8.3032   25.9569    6.1951 C.ar        1 MOL       0.0684
     17 C17         7.1968   25.7236    7.0446 C.ar        1 MOL      -0.0343
     18 C18         7.3482   25.7398    8.4412 C.ar        1 MOL      -0.0571
     19 C19         8.6069   26.0163    9.0216 C.ar        1 MOL      -0.0016
     20 C20         9.7205   26.2034    8.1732 C.ar        1 MOL      -0.0571
     21 C21         9.5722   26.1510    6.7772 C.ar        1 MOL      -0.0343
     22 C22         8.7425   26.1253   10.4253 C.2         1 MOL       0.0553
     23 C23         7.9705   29.1943    7.1851 C.ar        1 MOL      -0.0571
     24 C24         9.3114   29.1929    6.7573 C.ar        1 MOL      -0.0632
     25 C25         9.6480   29.7280    5.5013 C.ar        1 MOL      -0.0635
     26 C26         8.6565   30.3350    4.7112 C.ar        1 MOL      -0.0632
     27 C27         7.3262   30.3823    5.1713 C.ar        1 MOL      -0.0571
     28 O28         8.0992   25.2779   11.2669 O.co2       1 MOL      -0.5638
     29 O29         9.3628   27.2026   10.9683 O.co2       1 MOL      -0.5638
     30 H1          3.9410   29.4926    3.9570 H           1 MOL       0.2176
     31 H2          8.9323   25.6173    4.3248 H           1 MOL       0.2187
     32 H3          6.5700   27.2772    0.9694 H           1 MOL       0.0849
     33 H4          4.8628   28.6893    1.9906 H           1 MOL       0.0586
     34 H5          2.3757   29.5097    5.6626 H           1 MOL       0.0537
     35 H6          1.8985   30.0366    7.9638 H           1 MOL       0.0591
     36 H7          3.7077   30.2613    9.5600 H           1 MOL       0.0524
     37 H8          5.9806   30.1088    8.8386 H           1 MOL       0.0594
     38 H9          6.2737   25.5394    6.6484 H           1 MOL       0.0545
     39 H10         6.5266   25.5846    9.0252 H           1 MOL       0.0622
     40 H11        10.6426   26.3903    8.5663 H           1 MOL       0.0622
     41 H12        10.3888   26.2942    6.1782 H           1 MOL       0.0545
     42 H13         7.7527   28.7441    8.0781 H           1 MOL       0.0606
     43 H14        10.0400   28.7969    7.3529 H           1 MOL       0.0613
     44 H15        10.6168   29.6859    5.1748 H           1 MOL       0.0603
     45 H16         8.8998   30.7418    3.8083 H           1 MOL       0.0613
     46 H17         6.6354   30.8713    4.5983 H           1 MOL       0.0606
@<TRIPOS>BOND
     1     1     5  ar
     2     1     6  ar
     3     6     2  ar
     4     2     7  ar
     5     7     3   1
     6     3     9   1
     7     6     4   1
     8     4    16   1
     9     5     8  ar
    10     7     8  ar
    11     9    10  ar
    12     9    14  ar
    13    10    11  ar
    14    11    12  ar
    15    12    13  ar
    16    13    14  ar
    17    14    15   1
    18    15    23  ar
    19    15    27  ar
    20    16    17  ar
    21    16    21  ar
    22    17    18  ar
    23    18    19  ar
    24    19    20  ar
    25    19    22   1
    26    20    21  ar
    27    22    28  ar
    28    22    29  ar
    29    23    24  ar
    30    24    25  ar
    31    25    26  ar
    32    26    27  ar
    33     3    30   1
    34     4    31   1
    35     5    32   1
    36     8    33   1
    37    10    34   1
    38    11    35   1
    39    12    36   1
    40    13    37   1
    41    17    38   1
    42    18    39   1
    43    20    40   1
    44    21    41   1
    45    23    42   1
    46    24    43   1
    47    25    44   1
    48    26    45   1
    49    27    46   1
@<TRIPOS>SUBSTRUCTURE
     1  MOL      5

