@<TRIPOS>MOLECULE
3uo4_ligand_094
    46    49
SMALL
GAST_HUCK
****
This file was generated by PARSER (from files_GN.cpp)

@<TRIPOS>ATOM
      1 N01         4.0411   29.6573    4.3587 N.ar        1 MOL      -0.2685
      2 N02         5.9587   30.6405    3.4495 N.ar        1 MOL      -0.2339
      3 N03         8.0432   30.5323    4.6148 N.pl3       1 MOL      -0.2537
      4 N04         3.8622   30.6583    2.2869 N.pl3       1 MOL      -0.2427
      5 C05         4.7262   29.2662    5.4600 C.ar        1 MOL       0.0015
      6 C06         4.6318   30.3497    3.3526 C.ar        1 MOL       0.1962
      7 C07         6.7169   30.2638    4.5209 C.ar        1 MOL       0.1353
      8 C08         6.0947   29.5672    5.5734 C.ar        1 MOL      -0.0013
      9 C09         8.7875   31.1788    3.6749 C.ar        1 MOL       0.0745
     10 C10         9.3974   32.3920    4.0733 C.ar        1 MOL      -0.0363
     11 C11        10.0713   33.1894    3.1320 C.ar        1 MOL      -0.0708
     12 C12        10.1502   32.7806    1.7914 C.ar        1 MOL      -0.0722
     13 C13         9.6095   31.5425    1.4003 C.ar        1 MOL      -0.0625
     14 C14         8.9426   30.7145    2.3372 C.ar        1 MOL       0.0075
     15 C15         8.4886   29.4316    1.9140 C.ar        1 MOL      -0.0223
     16 C16         4.2994   31.2611    1.1551 C.ar        1 MOL       0.0684
     17 C17         4.5045   32.6549    1.0988 C.ar        1 MOL      -0.0343
     18 C18         4.8826   33.2651   -0.1130 C.ar        1 MOL      -0.0571
     19 C19         5.1222   32.4876   -1.2726 C.ar        1 MOL      -0.0016
     20 C20         4.9174   31.0900   -1.1987 C.ar        1 MOL      -0.0571
     21 C21         4.4734   30.4880   -0.0073 C.ar        1 MOL      -0.0343
     22 C22         5.5463   33.0907   -2.4825 C.2         1 MOL       0.0553
     23 C23         7.6007   29.3102    0.8220 C.ar        1 MOL      -0.0571
     24 C24         7.1340   28.0488    0.4060 C.ar        1 MOL      -0.0632
     25 C25         7.5750   26.8867    1.0607 C.ar        1 MOL      -0.0635
     26 C26         8.4876   26.9864    2.1269 C.ar        1 MOL      -0.0632
     27 C27         8.9369   28.2494    2.5556 C.ar        1 MOL      -0.0571
     28 O28         6.0361   32.3549   -3.5067 O.co2       1 MOL      -0.5638
     29 O29         5.4968   34.4299   -2.6659 O.co2       1 MOL      -0.5638
     30 H1          8.4704   30.3448    5.4661 H           1 MOL       0.2176
     31 H2          2.9858   30.2455    2.2469 H           1 MOL       0.2187
     32 H3          4.2467   28.7373    6.1899 H           1 MOL       0.0849
     33 H4          6.6247   29.2506    6.3892 H           1 MOL       0.0586
     34 H5          9.3167   32.7215    5.0388 H           1 MOL       0.0537
     35 H6         10.4833   34.0797    3.4156 H           1 MOL       0.0591
     36 H7         10.6213   33.3715    1.1053 H           1 MOL       0.0524
     37 H8          9.7253   31.2448    0.4282 H           1 MOL       0.0594
     38 H9          4.3520   33.2353    1.9267 H           1 MOL       0.0545
     39 H10         4.9827   34.2831   -0.1361 H           1 MOL       0.0622
     40 H11         5.0726   30.4920   -2.0142 H           1 MOL       0.0622
     41 H12         4.3128   29.4775    0.0124 H           1 MOL       0.0545
     42 H13         7.2794   30.1442    0.3273 H           1 MOL       0.0606
     43 H14         6.4784   27.9775   -0.3752 H           1 MOL       0.0613
     44 H15         7.2402   25.9694    0.7563 H           1 MOL       0.0603
     45 H16         8.8254   26.1370    2.5867 H           1 MOL       0.0613
     46 H17         9.6087   28.2996    3.3256 H           1 MOL       0.0606
@<TRIPOS>BOND
     1     1     5  ar
     2     1     6  ar
     3     6     2  ar
     4     2     7  ar
     5     7     3   1
     6     3     9   1
     7     6     4   1
     8     4    16   1
     9     5     8  ar
    10     7     8  ar
    11     9    10  ar
    12     9    14  ar
    13    10    11  ar
    14    11    12  ar
    15    12    13  ar
    16    13    14  ar
    17    14    15   1
    18    15    23  ar
    19    15    27  ar
    20    16    17  ar
    21    16    21  ar
    22    17    18  ar
    23    18    19  ar
    24    19    20  ar
    25    19    22   1
    26    20    21  ar
    27    22    28  ar
    28    22    29  ar
    29    23    24  ar
    30    24    25  ar
    31    25    26  ar
    32    26    27  ar
    33     3    30   1
    34     4    31   1
    35     5    32   1
    36     8    33   1
    37    10    34   1
    38    11    35   1
    39    12    36   1
    40    13    37   1
    41    17    38   1
    42    18    39   1
    43    20    40   1
    44    21    41   1
    45    23    42   1
    46    24    43   1
    47    25    44   1
    48    26    45   1
    49    27    46   1
@<TRIPOS>SUBSTRUCTURE
     1  MOL      5

