@<TRIPOS>MOLECULE
3uo4_ligand_097
    46    49
SMALL
GAST_HUCK
****
This file was generated by PARSER (from files_GN.cpp)

@<TRIPOS>ATOM
      1 N01         8.1977   31.7727    5.3337 N.ar        1 MOL      -0.2685
      2 N02         7.0628   30.1167    4.1591 N.ar        1 MOL      -0.2339
      3 N03         7.9872   27.9624    3.8551 N.pl3       1 MOL      -0.2537
      4 N04         6.1361   32.3044    4.3945 N.pl3       1 MOL      -0.2427
      5 C05         9.2303   30.9318    5.5962 C.ar        1 MOL       0.0015
      6 C06         7.1113   31.3913    4.6106 C.ar        1 MOL       0.1962
      7 C07         8.0517   29.2075    4.3837 C.ar        1 MOL       0.1353
      8 C08         9.1881   29.6102    5.1140 C.ar        1 MOL      -0.0013
      9 C09         6.9633   27.5315    3.0695 C.ar        1 MOL       0.0745
     10 C10         5.6983   27.3153    3.6592 C.ar        1 MOL      -0.0363
     11 C11         4.6174   26.8634    2.8846 C.ar        1 MOL      -0.0708
     12 C12         4.8005   26.6113    1.5165 C.ar        1 MOL      -0.0722
     13 C13         6.0478   26.8364    0.9126 C.ar        1 MOL      -0.0625
     14 C14         7.1405   27.3084    1.6764 C.ar        1 MOL       0.0075
     15 C15         8.3516   27.6280    1.0013 C.ar        1 MOL      -0.0223
     16 C16         4.9848   32.2185    3.6612 C.ar        1 MOL       0.0684
     17 C17         4.8047   31.4225    2.5055 C.ar        1 MOL      -0.0343
     18 C18         3.5979   31.4604    1.7751 C.ar        1 MOL      -0.0571
     19 C19         2.5321   32.3051    2.1694 C.ar        1 MOL      -0.0016
     20 C20         2.7178   33.1075    3.3195 C.ar        1 MOL      -0.0571
     21 C21         3.9285   33.0751    4.0404 C.ar        1 MOL      -0.0343
     22 C22         1.3104   32.3493    1.4427 C.2         1 MOL       0.0553
     23 C23         8.8132   28.9645    0.9500 C.ar        1 MOL      -0.0571
     24 C24         9.9944   29.2864    0.2566 C.ar        1 MOL      -0.0632
     25 C25        10.7243   28.2825   -0.4040 C.ar        1 MOL      -0.0635
     26 C26        10.2834   26.9473   -0.3488 C.ar        1 MOL      -0.0632
     27 C27         9.0957   26.6238    0.3333 C.ar        1 MOL      -0.0571
     28 O28         1.1356   31.6555    0.2963 O.co2       1 MOL      -0.5638
     29 O29         0.2524   33.0739    1.8725 O.co2       1 MOL      -0.5638
     30 H1          8.7767   27.3978    3.9160 H           1 MOL       0.2176
     31 H2          6.2650   33.1534    4.8415 H           1 MOL       0.2187
     32 H3         10.0328   31.2670    6.1338 H           1 MOL       0.0849
     33 H4          9.9609   28.9657    5.3040 H           1 MOL       0.0586
     34 H5          5.5629   27.4884    4.6575 H           1 MOL       0.0537
     35 H6          3.7052   26.7143    3.3232 H           1 MOL       0.0591
     36 H7          4.0160   26.2768    0.9579 H           1 MOL       0.0524
     37 H8          6.1383   26.6769   -0.0948 H           1 MOL       0.0594
     38 H9          5.5630   30.8308    2.1584 H           1 MOL       0.0545
     39 H10         3.5171   30.8754    0.9366 H           1 MOL       0.0622
     40 H11         1.9811   33.7419    3.6415 H           1 MOL       0.0622
     41 H12         4.0249   33.6821    4.8591 H           1 MOL       0.0545
     42 H13         8.2942   29.7136    1.4164 H           1 MOL       0.0606
     43 H14        10.3141   30.2569    0.2201 H           1 MOL       0.0613
     44 H15        11.5754   28.5209   -0.9083 H           1 MOL       0.0603
     45 H16        10.8219   26.2112   -0.8161 H           1 MOL       0.0613
     46 H17         8.7914   25.6472    0.3610 H           1 MOL       0.0606
@<TRIPOS>BOND
     1     1     5  ar
     2     1     6  ar
     3     6     2  ar
     4     2     7  ar
     5     7     3   1
     6     3     9   1
     7     6     4   1
     8     4    16   1
     9     5     8  ar
    10     7     8  ar
    11     9    10  ar
    12     9    14  ar
    13    10    11  ar
    14    11    12  ar
    15    12    13  ar
    16    13    14  ar
    17    14    15   1
    18    15    23  ar
    19    15    27  ar
    20    16    17  ar
    21    16    21  ar
    22    17    18  ar
    23    18    19  ar
    24    19    20  ar
    25    19    22   1
    26    20    21  ar
    27    22    28  ar
    28    22    29  ar
    29    23    24  ar
    30    24    25  ar
    31    25    26  ar
    32    26    27  ar
    33     3    30   1
    34     4    31   1
    35     5    32   1
    36     8    33   1
    37    10    34   1
    38    11    35   1
    39    12    36   1
    40    13    37   1
    41    17    38   1
    42    18    39   1
    43    20    40   1
    44    21    41   1
    45    23    42   1
    46    24    43   1
    47    25    44   1
    48    26    45   1
    49    27    46   1
@<TRIPOS>SUBSTRUCTURE
     1  MOL      5

