@<TRIPOS>MOLECULE
3uo4_ligand_008
    46    49
SMALL
GAST_HUCK
****
This file was generated by PARSER (from files_GN.cpp)

@<TRIPOS>ATOM
      1 N01         7.9126   32.0399   -0.7192 N.ar        1 MOL      -0.2685
      2 N02         6.6260   31.2782    1.0635 N.ar        1 MOL      -0.2339
      3 N03         7.4656   29.6741    2.6089 N.pl3       1 MOL      -0.2537
      4 N04         5.7734   32.9138   -0.4597 N.pl3       1 MOL      -0.2427
      5 C05         8.9420   31.2364   -0.3515 C.ar        1 MOL       0.0015
      6 C06         6.7523   32.0858   -0.0199 C.ar        1 MOL       0.1962
      7 C07         7.6070   30.4420    1.4985 C.ar        1 MOL       0.1353
      8 C08         8.8246   30.4170    0.7866 C.ar        1 MOL      -0.0013
      9 C09         6.3723   29.5907    3.4347 C.ar        1 MOL       0.0745
     10 C10         5.0646   29.4245    2.9162 C.ar        1 MOL      -0.0363
     11 C11         3.9636   29.2630    3.7760 C.ar        1 MOL      -0.0708
     12 C12         4.1531   29.2529    5.1672 C.ar        1 MOL      -0.0722
     13 C13         5.4442   29.4055    5.6988 C.ar        1 MOL      -0.0625
     14 C14         6.5611   29.5708    4.8452 C.ar        1 MOL       0.0075
     15 C15         7.8418   29.7524    5.4295 C.ar        1 MOL      -0.0223
     16 C16         4.5541   33.1591    0.1133 C.ar        1 MOL       0.0684
     17 C17         4.3871   33.2666    1.5128 C.ar        1 MOL      -0.0343
     18 C18         3.1274   33.5179    2.0745 C.ar        1 MOL      -0.0571
     19 C19         2.0003   33.6944    1.2444 C.ar        1 MOL      -0.0016
     20 C20         2.1657   33.6286   -0.1573 C.ar        1 MOL      -0.0571
     21 C21         3.4313   33.3744   -0.7156 C.ar        1 MOL      -0.0343
     22 C22         0.7272   33.9369    1.8099 C.2         1 MOL       0.0553
     23 C23         8.5001   31.0021    5.3424 C.ar        1 MOL      -0.0571
     24 C24         9.7645   31.1843    5.9311 C.ar        1 MOL      -0.0632
     25 C25        10.3879   30.1170    6.6041 C.ar        1 MOL      -0.0635
     26 C26         9.7468   28.8676    6.6877 C.ar        1 MOL      -0.0632
     27 C27         8.4795   28.6858    6.1047 C.ar        1 MOL      -0.0571
     28 O28         0.3380   33.3023    2.9435 O.co2       1 MOL      -0.5638
     29 O29        -0.1698   34.7591    1.2148 O.co2       1 MOL      -0.5638
     30 H1          8.2631   29.2063    2.9093 H           1 MOL       0.2176
     31 H2          5.9433   33.3612   -1.3126 H           1 MOL       0.2187
     32 H3          9.8006   31.2299   -0.9087 H           1 MOL       0.0849
     33 H4          9.6050   29.8223    1.0768 H           1 MOL       0.0586
     34 H5          4.9058   29.3868    1.9074 H           1 MOL       0.0537
     35 H6          3.0242   29.1375    3.3903 H           1 MOL       0.0591
     36 H7          3.3523   29.1314    5.7915 H           1 MOL       0.0524
     37 H8          5.5608   29.4043    6.7158 H           1 MOL       0.0594
     38 H9          5.1861   33.1943    2.1396 H           1 MOL       0.0545
     39 H10         3.0497   33.5981    3.0912 H           1 MOL       0.0622
     40 H11         1.3623   33.7481   -0.7807 H           1 MOL       0.0622
     41 H12         3.5209   33.3283   -1.7327 H           1 MOL       0.0545
     42 H13         8.0598   31.7885    4.8583 H           1 MOL       0.0606
     43 H14        10.2297   32.0927    5.8706 H           1 MOL       0.0613
     44 H15        11.3067   30.2481    7.0340 H           1 MOL       0.0603
     45 H16        10.2033   28.0927    7.1735 H           1 MOL       0.0613
     46 H17         8.0297   27.7686    6.1665 H           1 MOL       0.0606
@<TRIPOS>BOND
     1     1     5  ar
     2     1     6  ar
     3     6     2  ar
     4     2     7  ar
     5     7     3   1
     6     3     9   1
     7     6     4   1
     8     4    16   1
     9     5     8  ar
    10     7     8  ar
    11     9    10  ar
    12     9    14  ar
    13    10    11  ar
    14    11    12  ar
    15    12    13  ar
    16    13    14  ar
    17    14    15   1
    18    15    23  ar
    19    15    27  ar
    20    16    17  ar
    21    16    21  ar
    22    17    18  ar
    23    18    19  ar
    24    19    20  ar
    25    19    22   1
    26    20    21  ar
    27    22    28  ar
    28    22    29  ar
    29    23    24  ar
    30    24    25  ar
    31    25    26  ar
    32    26    27  ar
    33     3    30   1
    34     4    31   1
    35     5    32   1
    36     8    33   1
    37    10    34   1
    38    11    35   1
    39    12    36   1
    40    13    37   1
    41    17    38   1
    42    18    39   1
    43    20    40   1
    44    21    41   1
    45    23    42   1
    46    24    43   1
    47    25    44   1
    48    26    45   1
    49    27    46   1
@<TRIPOS>SUBSTRUCTURE
     1  MOL      5

