@<TRIPOS>MOLECULE
3uo4_ligand_027
    46    49
SMALL
GAST_HUCK
****
This file was generated by PARSER (from files_GN.cpp)

@<TRIPOS>ATOM
      1 N01         4.5370   30.0823    1.9758 N.ar        1 MOL      -0.2685
      2 N02         3.2417   31.6098    0.7694 N.ar        1 MOL      -0.2339
      3 N03         2.8910   31.5066   -1.5064 N.pl3       1 MOL      -0.2537
      4 N04         3.4710   31.7778    3.1463 N.pl3       1 MOL      -0.2427
      5 C05         4.8373   29.4043    0.8376 C.ar        1 MOL       0.0015
      6 C06         3.7501   31.1870    1.9603 C.ar        1 MOL       0.1962
      7 C07         3.4830   30.9749   -0.4086 C.ar        1 MOL       0.1353
      8 C08         4.2972   29.8210   -0.3968 C.ar        1 MOL      -0.0013
      9 C09         2.9649   31.0307   -2.7828 C.ar        1 MOL       0.0745
     10 C10         1.9015   30.2340   -3.2619 C.ar        1 MOL      -0.0363
     11 C11         1.8847   29.7832   -4.5890 C.ar        1 MOL      -0.0708
     12 C12         2.9338   30.1282   -5.4542 C.ar        1 MOL      -0.0722
     13 C13         3.9933   30.9303   -4.9958 C.ar        1 MOL      -0.0625
     14 C14         4.0206   31.3994   -3.6624 C.ar        1 MOL       0.0075
     15 C15         5.0678   32.2618   -3.2635 C.ar        1 MOL      -0.0223
     16 C16         2.6288   32.8302    3.3593 C.ar        1 MOL       0.0684
     17 C17         2.7341   34.0687    2.6906 C.ar        1 MOL      -0.0343
     18 C18         1.8155   35.1021    2.9365 C.ar        1 MOL      -0.0571
     19 C19         0.7641   34.9368    3.8707 C.ar        1 MOL      -0.0016
     20 C20         0.6801   33.7037    4.5607 C.ar        1 MOL      -0.0571
     21 C21         1.6057   32.6744    4.3151 C.ar        1 MOL      -0.0343
     22 C22        -0.1849   35.9660    4.0986 C.2         1 MOL       0.0553
     23 C23         6.0639   31.8215   -2.3535 C.ar        1 MOL      -0.0571
     24 C24         7.0873   32.7045   -1.9476 C.ar        1 MOL      -0.0632
     25 C25         7.1412   34.0135   -2.4645 C.ar        1 MOL      -0.0635
     26 C26         6.1656   34.4457   -3.3832 C.ar        1 MOL      -0.0632
     27 C27         5.1314   33.5796   -3.7818 C.ar        1 MOL      -0.0571
     28 O28        -1.0715   35.8994    5.1226 O.co2       1 MOL      -0.5638
     29 O29        -0.2801   37.0447    3.2811 O.co2       1 MOL      -0.5638
     30 H1          2.3501   32.3045   -1.3717 H           1 MOL       0.2176
     31 H2          3.7786   31.3080    3.9339 H           1 MOL       0.2187
     32 H3          5.3972   28.5497    0.8910 H           1 MOL       0.0849
     33 H4          4.4867   29.2890   -1.2408 H           1 MOL       0.0586
     34 H5          1.1223   29.9951   -2.6394 H           1 MOL       0.0537
     35 H6          1.1052   29.2142   -4.9272 H           1 MOL       0.0591
     36 H7          2.9176   29.8046   -6.4272 H           1 MOL       0.0524
     37 H8          4.7371   31.1810   -5.6532 H           1 MOL       0.0594
     38 H9          3.4951   34.2357    2.0243 H           1 MOL       0.0545
     39 H10         1.9195   35.9778    2.4232 H           1 MOL       0.0622
     40 H11        -0.0599   33.5369    5.2475 H           1 MOL       0.0622
     41 H12         1.5052   31.7872    4.8250 H           1 MOL       0.0545
     42 H13         6.0497   30.8550   -1.9926 H           1 MOL       0.0606
     43 H14         7.7931   32.3924   -1.2783 H           1 MOL       0.0613
     44 H15         7.8965   34.6472   -2.1847 H           1 MOL       0.0603
     45 H16         6.2118   35.3926   -3.7704 H           1 MOL       0.0613
     46 H17         4.4266   33.9129   -4.4489 H           1 MOL       0.0606
@<TRIPOS>BOND
     1     1     5  ar
     2     1     6  ar
     3     6     2  ar
     4     2     7  ar
     5     7     3   1
     6     3     9   1
     7     6     4   1
     8     4    16   1
     9     5     8  ar
    10     7     8  ar
    11     9    10  ar
    12     9    14  ar
    13    10    11  ar
    14    11    12  ar
    15    12    13  ar
    16    13    14  ar
    17    14    15   1
    18    15    23  ar
    19    15    27  ar
    20    16    17  ar
    21    16    21  ar
    22    17    18  ar
    23    18    19  ar
    24    19    20  ar
    25    19    22   1
    26    20    21  ar
    27    22    28  ar
    28    22    29  ar
    29    23    24  ar
    30    24    25  ar
    31    25    26  ar
    32    26    27  ar
    33     3    30   1
    34     4    31   1
    35     5    32   1
    36     8    33   1
    37    10    34   1
    38    11    35   1
    39    12    36   1
    40    13    37   1
    41    17    38   1
    42    18    39   1
    43    20    40   1
    44    21    41   1
    45    23    42   1
    46    24    43   1
    47    25    44   1
    48    26    45   1
    49    27    46   1
@<TRIPOS>SUBSTRUCTURE
     1  MOL      5

