@<TRIPOS>MOLECULE
3uo4_ligand_025
    46    49
SMALL
GAST_HUCK
****
This file was generated by PARSER (from files_GN.cpp)

@<TRIPOS>ATOM
      1 N01         4.4768   31.8096    3.0460 N.ar        1 MOL      -0.2685
      2 N02         5.6932   31.3977    4.9948 N.ar        1 MOL      -0.2339
      3 N03         7.5637   30.0557    5.1092 N.pl3       1 MOL      -0.2537
      4 N04         3.8395   32.7969    5.1365 N.pl3       1 MOL      -0.2427
      5 C05         5.3201   31.0276    2.3236 C.ar        1 MOL       0.0015
      6 C06         4.6502   32.0197    4.3773 C.ar        1 MOL       0.1962
      7 C07         6.5813   30.5997    4.3463 C.ar        1 MOL       0.1353
      8 C08         6.4290   30.4280    2.9529 C.ar        1 MOL      -0.0013
      9 C09         8.5376   29.1573    4.7749 C.ar        1 MOL       0.0745
     10 C10         9.8071   29.3948    5.3452 C.ar        1 MOL      -0.0363
     11 C11        10.8950   28.5408    5.0868 C.ar        1 MOL      -0.0708
     12 C12        10.7161   27.4192    4.2573 C.ar        1 MOL      -0.0722
     13 C13         9.4540   27.1427    3.7117 C.ar        1 MOL      -0.0625
     14 C14         8.3445   27.9920    3.9666 C.ar        1 MOL       0.0075
     15 C15         7.0849   27.6461    3.3979 C.ar        1 MOL      -0.0223
     16 C16         2.7801   33.5963    4.7819 C.ar        1 MOL       0.0684
     17 C17         2.5467   34.1149    3.4840 C.ar        1 MOL      -0.0343
     18 C18         1.4593   34.9686    3.2301 C.ar        1 MOL      -0.0571
     19 C19         0.5642   35.3439    4.2632 C.ar        1 MOL      -0.0016
     20 C20         0.8090   34.8402    5.5600 C.ar        1 MOL      -0.0571
     21 C21         1.9010   33.9859    5.8148 C.ar        1 MOL      -0.0343
     22 C22        -0.5320   36.2036    3.9987 C.2         1 MOL       0.0553
     23 C23         5.8846   27.7871    4.1379 C.ar        1 MOL      -0.0571
     24 C24         4.6353   27.6306    3.5163 C.ar        1 MOL      -0.0632
     25 C25         4.5600   27.2707    2.1607 C.ar        1 MOL      -0.0635
     26 C26         5.7393   27.0715    1.4217 C.ar        1 MOL      -0.0632
     27 C27         6.9914   27.2566    2.0364 C.ar        1 MOL      -0.0571
     28 O28        -0.5354   37.0431    2.9306 O.co2       1 MOL      -0.5638
     29 O29        -1.6418   36.1942    4.7722 O.co2       1 MOL      -0.5638
     30 H1          7.6202   30.4028    6.0141 H           1 MOL       0.2176
     31 H2          4.0322   32.7643    6.0890 H           1 MOL       0.2187
     32 H3          5.1669   30.9038    1.3216 H           1 MOL       0.0849
     33 H4          7.1021   29.8993    2.3966 H           1 MOL       0.0586
     34 H5          9.9646   30.2107    5.9444 H           1 MOL       0.0537
     35 H6         11.8110   28.7366    5.4962 H           1 MOL       0.0591
     36 H7         11.5068   26.8005    4.0617 H           1 MOL       0.0524
     37 H8          9.3492   26.3011    3.1406 H           1 MOL       0.0594
     38 H9          3.1826   33.9134    2.7154 H           1 MOL       0.0545
     39 H10         1.3350   35.3270    2.2790 H           1 MOL       0.0622
     40 H11         0.2041   35.0995    6.3409 H           1 MOL       0.0622
     41 H12         2.0488   33.6501    6.7692 H           1 MOL       0.0545
     42 H13         5.9106   28.0520    5.1275 H           1 MOL       0.0606
     43 H14         3.7736   27.8000    4.0348 H           1 MOL       0.0613
     44 H15         3.6519   27.1692    1.7107 H           1 MOL       0.0603
     45 H16         5.6881   26.8271    0.4298 H           1 MOL       0.0613
     46 H17         7.8351   27.1680    1.4647 H           1 MOL       0.0606
@<TRIPOS>BOND
     1     1     5  ar
     2     1     6  ar
     3     6     2  ar
     4     2     7  ar
     5     7     3   1
     6     3     9   1
     7     6     4   1
     8     4    16   1
     9     5     8  ar
    10     7     8  ar
    11     9    10  ar
    12     9    14  ar
    13    10    11  ar
    14    11    12  ar
    15    12    13  ar
    16    13    14  ar
    17    14    15   1
    18    15    23  ar
    19    15    27  ar
    20    16    17  ar
    21    16    21  ar
    22    17    18  ar
    23    18    19  ar
    24    19    20  ar
    25    19    22   1
    26    20    21  ar
    27    22    28  ar
    28    22    29  ar
    29    23    24  ar
    30    24    25  ar
    31    25    26  ar
    32    26    27  ar
    33     3    30   1
    34     4    31   1
    35     5    32   1
    36     8    33   1
    37    10    34   1
    38    11    35   1
    39    12    36   1
    40    13    37   1
    41    17    38   1
    42    18    39   1
    43    20    40   1
    44    21    41   1
    45    23    42   1
    46    24    43   1
    47    25    44   1
    48    26    45   1
    49    27    46   1
@<TRIPOS>SUBSTRUCTURE
     1  MOL      5

