@<TRIPOS>MOLECULE
3uo4_ligand_068
    46    49
SMALL
GAST_HUCK
****
This file was generated by PARSER (from files_GN.cpp)

@<TRIPOS>ATOM
      1 N01         7.9007   29.8420    3.2825 N.ar        1 MOL      -0.2685
      2 N02         6.2099   30.1009    1.6918 N.ar        1 MOL      -0.2339
      3 N03         6.3321   29.3515   -0.4770 N.pl3       1 MOL      -0.2537
      4 N04         5.9308   30.9035    3.9226 N.pl3       1 MOL      -0.2427
      5 C05         8.6899   29.2137    2.3746 C.ar        1 MOL       0.0015
      6 C06         6.6644   30.3006    2.9585 C.ar        1 MOL       0.1962
      7 C07         6.9291   29.4621    0.7345 C.ar        1 MOL       0.1353
      8 C08         8.2221   28.9998    1.0670 C.ar        1 MOL      -0.0013
      9 C09         6.8629   28.7785   -1.5965 C.ar        1 MOL       0.0745
     10 C10         7.1667   27.3981   -1.5991 C.ar        1 MOL      -0.0363
     11 C11         7.7389   26.7942   -2.7311 C.ar        1 MOL      -0.0708
     12 C12         8.0126   27.5646   -3.8731 C.ar        1 MOL      -0.0722
     13 C13         7.6659   28.9276   -3.9016 C.ar        1 MOL      -0.0625
     14 C14         7.0738   29.5455   -2.7736 C.ar        1 MOL       0.0075
     15 C15         6.7559   30.9279   -2.8296 C.ar        1 MOL      -0.0223
     16 C16         4.7148   31.5120    3.7908 C.ar        1 MOL       0.0684
     17 C17         3.7993   31.4052    4.8577 C.ar        1 MOL      -0.0343
     18 C18         2.5473   32.0442    4.7988 C.ar        1 MOL      -0.0571
     19 C19         2.1848   32.8311    3.6803 C.ar        1 MOL      -0.0016
     20 C20         3.1179   32.9604    2.6237 C.ar        1 MOL      -0.0571
     21 C21         4.3624   32.3076    2.6764 C.ar        1 MOL      -0.0343
     22 C22         0.9169   33.4632    3.6174 C.2         1 MOL       0.0553
     23 C23         7.4346   31.8559   -2.0044 C.ar        1 MOL      -0.0571
     24 C24         7.1222   33.2265   -2.0641 C.ar        1 MOL      -0.0632
     25 C25         6.1252   33.6817   -2.9457 C.ar        1 MOL      -0.0635
     26 C26         5.4350   32.7673   -3.7615 C.ar        1 MOL      -0.0632
     27 C27         5.7501   31.3972   -3.7066 C.ar        1 MOL      -0.0571
     28 O28         0.4670   34.0337    2.4758 O.co2       1 MOL      -0.5638
     29 O29         0.0692   33.4796    4.6724 O.co2       1 MOL      -0.5638
     30 H1          5.4919   29.8275   -0.5839 H           1 MOL       0.2176
     31 H2          6.2865   30.8497    4.8240 H           1 MOL       0.2187
     32 H3          9.6190   28.8922    2.6478 H           1 MOL       0.0849
     33 H4          8.8168   28.5329    0.3807 H           1 MOL       0.0586
     34 H5          6.9794   26.8284   -0.7707 H           1 MOL       0.0537
     35 H6          7.9666   25.7983   -2.7200 H           1 MOL       0.0591
     36 H7          8.4605   27.1331   -4.6851 H           1 MOL       0.0524
     37 H8          7.8736   29.4711   -4.7450 H           1 MOL       0.0594
     38 H9          4.0309   30.8422    5.6797 H           1 MOL       0.0545
     39 H10         1.9003   31.9171    5.5807 H           1 MOL       0.0622
     40 H11         2.9063   33.5363    1.8042 H           1 MOL       0.0622
     41 H12         5.0193   32.4435    1.9052 H           1 MOL       0.0545
     42 H13         8.1628   31.5408   -1.3579 H           1 MOL       0.0606
     43 H14         7.6216   33.8919   -1.4688 H           1 MOL       0.0613
     44 H15         5.9024   34.6782   -2.9951 H           1 MOL       0.0603
     45 H16         4.7039   33.0991   -4.3944 H           1 MOL       0.0613
     46 H17         5.2312   30.7448   -4.2997 H           1 MOL       0.0606
@<TRIPOS>BOND
     1     1     5  ar
     2     1     6  ar
     3     6     2  ar
     4     2     7  ar
     5     7     3   1
     6     3     9   1
     7     6     4   1
     8     4    16   1
     9     5     8  ar
    10     7     8  ar
    11     9    10  ar
    12     9    14  ar
    13    10    11  ar
    14    11    12  ar
    15    12    13  ar
    16    13    14  ar
    17    14    15   1
    18    15    23  ar
    19    15    27  ar
    20    16    17  ar
    21    16    21  ar
    22    17    18  ar
    23    18    19  ar
    24    19    20  ar
    25    19    22   1
    26    20    21  ar
    27    22    28  ar
    28    22    29  ar
    29    23    24  ar
    30    24    25  ar
    31    25    26  ar
    32    26    27  ar
    33     3    30   1
    34     4    31   1
    35     5    32   1
    36     8    33   1
    37    10    34   1
    38    11    35   1
    39    12    36   1
    40    13    37   1
    41    17    38   1
    42    18    39   1
    43    20    40   1
    44    21    41   1
    45    23    42   1
    46    24    43   1
    47    25    44   1
    48    26    45   1
    49    27    46   1
@<TRIPOS>SUBSTRUCTURE
     1  MOL      5

