@<TRIPOS>MOLECULE
3uri_ligand_021
   130   133
SMALL
GAST_HUCK
****
This file was generated by PARSER (from files_GN.cpp)

@<TRIPOS>ATOM
      1 N          -2.0608   43.2364   11.1794 N.4         1 PRO       0.2461
      2 CA         -2.0527   42.2174   12.2502 C.3         1 PRO       0.0670
      3 C          -0.7332   41.7335   12.6263 C.2         1 PRO       0.2269
      4 O           0.2591   42.1333   12.0339 O.2         1 PRO      -0.3907
      5 CB         -2.9779   41.1183   11.6886 C.3         1 PRO       0.0127
      6 CG         -4.0802   41.9141   10.9745 C.3         1 PRO      -0.0053
      7 CD         -3.3720   43.2021   10.5093 C.3         1 PRO      -0.0313
      8 N          -0.6342   40.8382   13.6047 N.am        1 PRO      -0.2592
      9 CA          0.5643   40.1782   14.0544 C.3         1 PRO       0.1422
     10 C           1.1334   39.2323   13.0927 C.2         1 PRO       0.2060
     11 O           0.4844   38.8618   12.1233 O.2         1 PRO      -0.3942
     12 CB          0.2896   39.5266   15.4468 C.3         1 PRO       0.0427
     13 CG         -0.7765   38.4998   15.5337 C.2         1 PRO       0.0561
     14 ND1        -1.4736   38.2388   16.6475 N.pl3       1 PRO      -0.2623
     15 CD2        -1.2228   37.5799   14.5868 C.2         1 PRO      -0.0276
     16 CE1        -2.3119   37.2225   16.4087 C.2         1 PRO       0.0875
     17 NE2        -2.1673   36.8064   15.1417 N.2         1 PRO      -0.3437
     18 N           2.3590   38.7625   13.2931 N.am        1 PRO      -0.2636
     19 CA          3.0783   37.8246   12.4697 C.3         1 PRO       0.1312
     20 C           3.1814   36.5219   13.1349 C.2         1 PRO       0.2040
     21 O           2.8494   36.3887   14.3077 O.2         1 PRO      -0.3944
     22 CB          4.4852   38.4295   12.1136 C.3         1 PRO      -0.0101
     23 CG          4.5354   39.8037   11.3724 C.3         1 PRO      -0.0425
     24 CD1         5.9542   40.0217   10.7687 C.3         1 PRO      -0.0625
     25 CD2         3.4604   39.9262   10.2559 C.3         1 PRO      -0.0625
     26 N           3.6093   35.4812   12.4244 N.am        1 PRO      -0.2616
     27 CA          4.0110   34.1465   12.8053 C.3         1 PRO       0.1538
     28 C           4.2636   33.9258   14.2431 C.2         1 PRO       0.2045
     29 O           3.7060   34.6091   15.0913 O.2         1 PRO      -0.3944
     30 CB          5.2846   33.8675   11.9358 C.3         1 PRO       0.0843
     31 OG          6.1165   32.7978   12.3919 O.3         1 PRO      -0.3903
     32 N           5.0546   32.9300   14.6310 N.am        1 PRO      -0.2748
     33 C1          5.4856   32.5591   15.9492 C.3         1 PRO       0.0911
     34 C2          6.3528   33.6494   16.6732 C.3         1 PRO       0.0089
     35 C3          7.5504   33.1221   17.3883 C.ar        1 PRO      -0.0406
     36 C4          7.5859   33.0542   18.7983 C.ar        1 PRO      -0.0603
     37 C5          8.7063   32.7555   16.6587 C.ar        1 PRO      -0.0603
     38 C6          8.7457   32.6192   19.4624 C.ar        1 PRO      -0.0686
     39 C7          9.8709   32.3372   17.3248 C.ar        1 PRO      -0.0686
     40 C8          9.8897   32.2602   18.7308 C.ar        1 PRO      -0.0687
     41 C9          4.2801   32.0191   16.7761 C.3         1 PRO      -0.0062
     42 N2          3.5861   30.9223   16.0467 N.4         1 PRO       0.2479
     43 C10         2.5231   30.1426   16.7465 C.3         1 PRO       0.0676
     44 C11         1.6983   29.3514   15.6794 C.3         1 PRO       0.0169
     45 C12         0.7020   30.2001   14.8409 C.3         1 PRO       0.0007
     46 SD         -0.8072   30.6752   15.7294 S.3         1 PRO      -0.1638
     47 C13        -1.7064   29.1055   15.6595 C.3         1 PRO      -0.0181
     48 C           3.1315   29.2667   17.7501 C.2         1 PRO       0.2268
     49 O           3.4381   28.1153   17.4503 O.2         1 PRO      -0.3907
     50 N           3.4270   29.7681   18.9422 N.am        1 PRO      -0.2613
     51 CA          4.1411   29.1228   20.0114 C.3         1 PRO       0.1283
     52 C           4.0238   29.9117   21.2361 C.2         1 PRO       0.2032
     53 O           3.6037   29.3681   22.2516 O.2         1 PRO      -0.3944
     54 CB          5.6483   28.9170   19.6772 C.3         1 PRO      -0.0244
     55 N           4.4478   31.1735   21.2578 N.am        1 PRO      -0.2677
     56 CA          4.5098   32.0825   22.3677 C.3         1 PRO       0.1056
     57 C           5.8156   31.9407   23.0544 C.2         1 PRO       0.0621
     58 O           6.1167   30.8951   23.8557 O.co2       1 PRO      -0.5664
     59 CB          3.2593   31.9906   23.2974 C.3         1 PRO       0.0372
     60 CG          3.0621   33.1847   24.1450 C.2         1 PRO       0.0555
     61 ND1         2.9370   34.4384   23.6998 N.pl3       1 PRO      -0.2623
     62 CD2         2.8944   33.2417   25.5277 C.2         1 PRO      -0.0276
     63 CE1         2.6946   35.2420   24.7432 C.2         1 PRO       0.0875
     64 NE2         2.6670   34.5163   25.8754 N.2         1 PRO      -0.3437
     65 OXT         6.7826   32.8527   22.8197 O.co2       1 PRO      -0.5664
     66 H1         -1.3377   43.0127   10.4902 H           1 PRO       0.2035
     67 H2         -1.8805   44.1661   11.5669 H           1 PRO       0.2035
     68 H3         -2.5159   42.6606   13.1370 H           1 PRO       0.1099
     69 H4         -3.3894   40.4866   12.4824 H           1 PRO       0.0347
     70 H5         -2.4460   40.4902   10.9664 H           1 PRO       0.0347
     71 H6         -4.8814   42.1558   11.6803 H           1 PRO       0.0320
     72 H7         -4.5010   41.3505   10.1367 H           1 PRO       0.0320
     73 H8         -3.2218   43.1915    9.4266 H           1 PRO       0.0814
     74 H9         -3.9538   44.0864   10.7792 H           1 PRO       0.0814
     75 H10        -1.4596   40.5837   14.0476 H           1 PRO       0.1886
     76 H11         1.3180   40.9584   14.2097 H           1 PRO       0.0824
     77 H12         0.0320   40.3343   16.1413 H           1 PRO       0.0491
     78 H13         1.2044   39.0753   15.8349 H           1 PRO       0.0491
     79 H14        -1.3750   38.6978   17.4952 H           1 PRO       0.2386
     80 H15        -0.8963   37.4848   13.6256 H           1 PRO       0.0324
     81 H16        -2.9532   36.8154   17.0898 H           1 PRO       0.1149
     82 H17         2.8061   39.0374   14.1146 H           1 PRO       0.1883
     83 H18         2.5570   37.6288   11.5288 H           1 PRO       0.0800
     84 H19         5.0082   37.7197   11.4653 H           1 PRO       0.0315
     85 H20         5.0742   38.5101   13.0354 H           1 PRO       0.0315
     86 H21         4.3569   40.5934   12.1093 H           1 PRO       0.0298
     87 H22         6.0408   41.0172   10.3352 H           1 PRO       0.0232
     88 H23         6.1506   39.2871    9.9847 H           1 PRO       0.0232
     89 H24         6.7203   39.9146   11.5399 H           1 PRO       0.0232
     90 H25         2.4642   39.9940   10.6983 H           1 PRO       0.0232
     91 H26         3.4932   39.0542    9.5977 H           1 PRO       0.0232
     92 H27         3.6187   40.8226    9.6547 H           1 PRO       0.0232
     93 H28         3.7043   35.6613   11.4753 H           1 PRO       0.1884
     94 H29         3.2175   33.4581   12.4961 H           1 PRO       0.0823
     95 H30         5.9213   34.7548   11.9189 H           1 PRO       0.0606
     96 H31         4.9690   33.6475   10.9121 H           1 PRO       0.0606
     97 H32         5.9104   32.0354   11.7988 H           1 PRO       0.2097
     98 H33         5.4211   32.3860   13.9153 H           1 PRO       0.1859
     99 H34         6.1299   31.6998   15.7669 H           1 PRO       0.0632
    100 H35         5.7088   34.2106   17.3583 H           1 PRO       0.0450
    101 H36         6.7146   34.3774   15.9375 H           1 PRO       0.0450
    102 H37         6.7723   33.3346   19.3520 H           1 PRO       0.0557
    103 H38         8.7191   32.8183   15.6368 H           1 PRO       0.0557
    104 H39         8.7643   32.5819   20.4831 H           1 PRO       0.0599
    105 H40        10.7097   32.1004   16.7943 H           1 PRO       0.0599
    106 H41        10.7381   31.9611   19.2157 H           1 PRO       0.0559
    107 H42         3.5696   32.8245   16.9733 H           1 PRO       0.0839
    108 H43         4.6628   31.6582   17.7282 H           1 PRO       0.0839
    109 H44         4.2944   30.2635   15.7072 H           1 PRO       0.2036
    110 H45         3.1541   31.3557   15.2301 H           1 PRO       0.2036
    111 H46         1.8379   30.8344   17.2470 H           1 PRO       0.1099
    112 H47         1.1512   28.5384   16.1571 H           1 PRO       0.0354
    113 H48         2.4031   28.8799   14.9945 H           1 PRO       0.0354
    114 H49         0.4166   29.6459   13.9420 H           1 PRO       0.0380
    115 H50         1.1850   31.1187   14.5072 H           1 PRO       0.0380
    116 H51        -2.7239   29.2633   16.0163 H           1 PRO       0.0340
    117 H52        -1.2312   28.3641   16.2990 H           1 PRO       0.0340
    118 H53        -1.7456   28.7316   14.6357 H           1 PRO       0.0340
    119 H54         3.1636   30.6940   19.0911 H           1 PRO       0.1884
    120 H55         3.6928   28.1372   20.1740 H           1 PRO       0.0797
    121 H56         6.1869   28.5167   20.5416 H           1 PRO       0.0277
    122 H57         6.1102   29.8653   19.3850 H           1 PRO       0.0277
    123 H58         5.7744   28.2066   18.8609 H           1 PRO       0.0277
    124 H59         4.7685   31.5284   20.4165 H           1 PRO       0.1877
    125 H60         4.5092   33.0807   21.9178 H           1 PRO       0.0750
    126 H61         3.3215   31.1018   23.9305 H           1 PRO       0.0484
    127 H62         2.3610   31.8904   22.6834 H           1 PRO       0.0484
    128 H63         2.9869   34.7067   22.7700 H           1 PRO       0.2386
    129 H64         2.9250   32.4468   26.1691 H           1 PRO       0.0324
    130 H65         2.5411   36.2496   24.6835 H           1 PRO       0.1149
@<TRIPOS>BOND
     1     1     2   1
     2     1     7   1
     3     2     3   1
     4     2     5   1
     5     3     4   2
     6     3     8  am
     7     5     6   1
     8     6     7   1
     9     8     9   1
    10     9    10   1
    11     9    12   1
    12    10    11   2
    13    10    18  am
    14    12    13   1
    15    13    14   1
    16    13    15   2
    17    14    16   1
    18    15    17   1
    19    16    17   2
    20    18    19   1
    21    19    20   1
    22    19    22   1
    23    20    21   2
    24    20    26  am
    25    22    23   1
    26    23    24   1
    27    23    25   1
    28    26    27   1
    29    27    28   1
    30    27    30   1
    31    28    29   2
    32    28    32  am
    33    30    31   1
    34    32    33   1
    35    33    34   1
    36    33    41   1
    37    34    35   1
    38    35    36  ar
    39    35    37  ar
    40    36    38  ar
    41    37    39  ar
    42    38    40  ar
    43    39    40  ar
    44    41    42   1
    45    42    43   1
    46    43    44   1
    47    43    48   1
    48    44    45   1
    49    45    46   1
    50    46    47   1
    51    48    49   2
    52    48    50  am
    53    50    51   1
    54    51    52   1
    55    51    54   1
    56    52    53   2
    57    52    55  am
    58    55    56   1
    59    56    57   1
    60    56    59   1
    61    57    58  ar
    62    57    65  ar
    63    59    60   1
    64    60    61   1
    65    60    62   2
    66    61    63   1
    67    62    64   1
    68    63    64   2
    69     1    66   1
    70     1    67   1
    71     2    68   1
    72     5    69   1
    73     5    70   1
    74     6    71   1
    75     6    72   1
    76     7    73   1
    77     7    74   1
    78     8    75   1
    79     9    76   1
    80    12    77   1
    81    12    78   1
    82    14    79   1
    83    15    80   1
    84    16    81   1
    85    18    82   1
    86    19    83   1
    87    22    84   1
    88    22    85   1
    89    23    86   1
    90    24    87   1
    91    24    88   1
    92    24    89   1
    93    25    90   1
    94    25    91   1
    95    25    92   1
    96    26    93   1
    97    27    94   1
    98    30    95   1
    99    30    96   1
   100    31    97   1
   101    32    98   1
   102    33    99   1
   103    34   100   1
   104    34   101   1
   105    36   102   1
   106    37   103   1
   107    38   104   1
   108    39   105   1
   109    40   106   1
   110    41   107   1
   111    41   108   1
   112    42   109   1
   113    42   110   1
   114    43   111   1
   115    44   112   1
   116    44   113   1
   117    45   114   1
   118    45   115   1
   119    47   116   1
   120    47   117   1
   121    47   118   1
   122    50   119   1
   123    51   120   1
   124    54   121   1
   125    54   122   1
   126    54   123   1
   127    55   124   1
   128    56   125   1
   129    59   126   1
   130    59   127   1
   131    61   128   1
   132    62   129   1
   133    63   130   1
@<TRIPOS>SUBSTRUCTURE
     1  PRO      2

