@<TRIPOS>MOLECULE
3uri_ligand_038
   130   133
SMALL
GAST_HUCK
****
This file was generated by PARSER (from files_GN.cpp)

@<TRIPOS>ATOM
      1 N           5.5227   31.9800   21.3198 N.4         1 PRO       0.2461
      2 CA          5.3656   30.5180   21.2721 C.3         1 PRO       0.0670
      3 C           5.5879   29.9679   19.9372 C.2         1 PRO       0.2269
      4 O           6.4230   29.0895   19.7985 O.2         1 PRO      -0.3907
      5 CB          3.9440   30.3133   21.8330 C.3         1 PRO       0.0127
      6 CG          3.8298   31.3816   22.9368 C.3         1 PRO      -0.0053
      7 CD          4.8898   32.4417   22.5673 C.3         1 PRO      -0.0313
      8 N           4.8945   30.4166   18.8992 N.am        1 PRO      -0.2592
      9 CA          5.0161   30.0248   17.5164 C.3         1 PRO       0.1422
     10 C           5.1062   31.2865   16.7841 C.2         1 PRO       0.2060
     11 O           4.0712   31.8311   16.4247 O.2         1 PRO      -0.3942
     12 CB          3.8657   29.0813   17.0085 C.3         1 PRO       0.0427
     13 CG          3.1409   28.3515   18.0683 C.2         1 PRO       0.0561
     14 ND1         3.2703   27.0548   18.3654 N.pl3       1 PRO      -0.2623
     15 CD2         2.2048   28.8661   18.9625 C.2         1 PRO      -0.0276
     16 CE1         2.4600   26.7710   19.3935 C.2         1 PRO       0.0875
     17 NE2         1.7952   27.8766   19.7711 N.2         1 PRO      -0.3437
     18 N           6.2576   31.9554   16.7788 N.am        1 PRO      -0.2636
     19 CA          6.4251   33.3136   16.3324 C.3         1 PRO       0.1312
     20 C           6.1576   33.3942   14.9079 C.2         1 PRO       0.2040
     21 O           6.7770   32.6348   14.1666 O.2         1 PRO      -0.3944
     22 CB          7.8231   33.9024   16.6821 C.3         1 PRO      -0.0101
     23 CG          8.3021   33.8297   18.1798 C.3         1 PRO      -0.0425
     24 CD1         7.1361   33.8352   19.2081 C.3         1 PRO      -0.0625
     25 CD2         9.2869   32.6604   18.4590 C.3         1 PRO      -0.0625
     26 N           5.2073   34.2170   14.4605 N.am        1 PRO      -0.2616
     27 CA          4.6292   34.4124   13.1579 C.3         1 PRO       0.1538
     28 C           3.1769   34.5729   13.3011 C.2         1 PRO       0.2045
     29 O           2.7743   35.4203   14.0892 O.2         1 PRO      -0.3944
     30 CB          5.0465   33.3770   12.0753 C.3         1 PRO       0.0843
     31 OG          4.6918   32.0662   12.5087 O.3         1 PRO      -0.3903
     32 N           2.2923   33.9038   12.5633 N.am        1 PRO      -0.2748
     33 C1          0.8692   34.0992   12.4780 C.3         1 PRO       0.0911
     34 C2          0.5186   34.7063   11.0790 C.3         1 PRO       0.0089
     35 C3          0.9549   36.1268   10.9310 C.ar        1 PRO      -0.0406
     36 C4          0.0052   37.1818   10.9111 C.ar        1 PRO      -0.0603
     37 C5          2.3262   36.4521   10.8040 C.ar        1 PRO      -0.0603
     38 C6          0.4183   38.5174   10.7618 C.ar        1 PRO      -0.0686
     39 C7          2.7393   37.7894   10.6592 C.ar        1 PRO      -0.0686
     40 C8          1.7862   38.8230   10.6291 C.ar        1 PRO      -0.0687
     41 C9          0.1526   32.7319   12.7309 C.3         1 PRO      -0.0062
     42 N2         -0.1084   32.5022   14.1806 N.4         1 PRO       0.2479
     43 C10        -1.4556   31.9741   14.5737 C.3         1 PRO       0.0676
     44 C11        -1.3087   30.9225   15.7204 C.3         1 PRO       0.0169
     45 C12        -0.6628   29.5837   15.2661 C.3         1 PRO       0.0007
     46 SD         -0.2147   28.5587   16.6904 S.3         1 PRO      -0.1638
     47 C13         0.9776   27.4834   15.8558 C.3         1 PRO      -0.0181
     48 C          -2.3409   33.1037   14.8849 C.2         1 PRO       0.2268
     49 O          -2.9000   33.1904   15.9680 O.2         1 PRO      -0.3907
     50 N          -2.5596   34.0124   13.9381 N.am        1 PRO      -0.2613
     51 CA         -3.4035   35.1779   13.9807 C.3         1 PRO       0.1283
     52 C          -3.8454   35.5555   12.6378 C.2         1 PRO       0.2032
     53 O          -3.3867   34.9875   11.6540 O.2         1 PRO      -0.3944
     54 CB         -2.6742   36.3671   14.6632 C.3         1 PRO      -0.0244
     55 N          -4.7790   36.4937   12.4811 N.am        1 PRO      -0.2677
     56 CA         -5.3646   36.8882   11.2265 C.3         1 PRO       0.1056
     57 C          -4.4712   37.8539   10.5497 C.2         1 PRO       0.0621
     58 O          -3.8614   38.8403   11.2487 O.co2       1 PRO      -0.5664
     59 CB         -6.8040   37.4658   11.4407 C.3         1 PRO       0.0372
     60 CG         -7.7176   37.2275   10.3010 C.2         1 PRO       0.0555
     61 ND1        -8.9466   36.6984   10.3891 N.pl3       1 PRO      -0.2623
     62 CD2        -7.4990   37.4612    8.9422 C.2         1 PRO      -0.0276
     63 CE1        -9.4677   36.6074    9.1565 C.2         1 PRO       0.0875
     64 NE2        -8.5817   37.0701    8.2553 N.2         1 PRO      -0.3437
     65 OXT        -4.1085   37.6781    9.2559 O.co2       1 PRO      -0.5664
     66 H1          5.0286   32.4004   20.5282 H           1 PRO       0.2035
     67 H2          6.5108   32.2436   21.2919 H           1 PRO       0.2035
     68 H3          6.0831   30.0772   21.9732 H           1 PRO       0.1099
     69 H4          3.8035   29.3015   22.2285 H           1 PRO       0.0347
     70 H5          3.1828   30.5118   21.0715 H           1 PRO       0.0347
     71 H6          4.0543   30.9449   23.9146 H           1 PRO       0.0320
     72 H7          2.8262   31.8135   22.9606 H           1 PRO       0.0320
     73 H8          4.4377   33.4237   22.4116 H           1 PRO       0.0814
     74 H9          5.6489   32.5158   23.3489 H           1 PRO       0.0814
     75 H10         4.2384   31.1043   19.0849 H           1 PRO       0.1886
     76 H11         5.9538   29.4721   17.3805 H           1 PRO       0.0824
     77 H12         4.3006   28.3417   16.3288 H           1 PRO       0.0491
     78 H13         3.1134   29.6203   16.4280 H           1 PRO       0.0491
     79 H14         3.8495   26.4256   17.9100 H           1 PRO       0.2386
     80 H15         1.8696   29.8300   18.9984 H           1 PRO       0.0324
     81 H16         2.3627   25.8506   19.8286 H           1 PRO       0.1149
     82 H17         7.0385   31.5064   17.1465 H           1 PRO       0.1883
     83 H18         5.7021   33.9345   16.8726 H           1 PRO       0.0800
     84 H19         7.8028   34.9641   16.4098 H           1 PRO       0.0315
     85 H20         8.5853   33.4356   16.0528 H           1 PRO       0.0315
     86 H21         8.8762   34.7449   18.3655 H           1 PRO       0.0298
     87 H22         7.5253   33.8608   20.2304 H           1 PRO       0.0232
     88 H23         6.5222   32.9385   19.1078 H           1 PRO       0.0232
     89 H24         6.5054   34.7156   19.0600 H           1 PRO       0.0232
     90 H25        10.1396   32.7131   17.7783 H           1 PRO       0.0232
     91 H26         8.8065   31.6897   18.3441 H           1 PRO       0.0232
     92 H27         9.6704   32.7288   19.4803 H           1 PRO       0.0232
     93 H28         4.8639   34.8177   15.1419 H           1 PRO       0.1884
     94 H29         5.0047   35.3790   12.8094 H           1 PRO       0.0823
     95 H30         6.1184   33.4227   11.9170 H           1 PRO       0.0606
     96 H31         4.5781   33.5931   11.1164 H           1 PRO       0.0606
     97 H32         5.3444   31.4773   12.0916 H           1 PRO       0.2097
     98 H33         2.6422   33.2386   11.9473 H           1 PRO       0.1859
     99 H34         0.5032   34.8032   13.2310 H           1 PRO       0.0632
    100 H35        -0.5661   34.6554   10.9246 H           1 PRO       0.0450
    101 H36         0.9662   34.1010   10.2803 H           1 PRO       0.0450
    102 H37        -0.9930   36.9847   11.0115 H           1 PRO       0.0557
    103 H38         3.0330   35.7116   10.7992 H           1 PRO       0.0557
    104 H39        -0.2746   39.2693   10.7463 H           1 PRO       0.0599
    105 H40         3.7337   38.0090   10.5685 H           1 PRO       0.0599
    106 H41         2.0862   39.7934   10.5087 H           1 PRO       0.0559
    107 H42         0.7619   31.9024   12.3570 H           1 PRO       0.0839
    108 H43        -0.7804   32.6952   12.1627 H           1 PRO       0.0839
    109 H44         0.0370   33.3793   14.6845 H           1 PRO       0.2036
    110 H45         0.6114   31.8590   14.5123 H           1 PRO       0.2036
    111 H46        -1.9074   31.4277   13.7379 H           1 PRO       0.1099
    112 H47        -2.3033   30.6928   16.1182 H           1 PRO       0.0354
    113 H48        -0.7130   31.3552   16.5300 H           1 PRO       0.0354
    114 H49         0.2380   29.7795   14.6812 H           1 PRO       0.0380
    115 H50        -1.3704   29.0256   14.6442 H           1 PRO       0.0380
    116 H51         1.3416   26.7387   16.5666 H           1 PRO       0.0340
    117 H52         1.8228   28.0720   15.4930 H           1 PRO       0.0340
    118 H53         0.5051   26.9711   15.0165 H           1 PRO       0.0340
    119 H54        -2.1369   33.8347   13.0873 H           1 PRO       0.1884
    120 H55        -4.2939   34.9288   14.5672 H           1 PRO       0.0797
    121 H56        -3.3317   37.2360   14.7289 H           1 PRO       0.0277
    122 H57        -1.7829   36.6475   14.0987 H           1 PRO       0.0277
    123 H58        -2.3712   36.1043   15.6768 H           1 PRO       0.0277
    124 H59        -5.1379   36.8980   13.2869 H           1 PRO       0.1877
    125 H60        -5.4605   35.9897   10.6033 H           1 PRO       0.0750
    126 H61        -6.7665   38.5399   11.6423 H           1 PRO       0.0484
    127 H62        -7.2513   36.9933   12.3197 H           1 PRO       0.0484
    128 H63        -9.3907   36.4309   11.2121 H           1 PRO       0.2386
    129 H64        -6.6555   37.8573    8.5274 H           1 PRO       0.0324
    130 H65       -10.3946   36.2383    8.9370 H           1 PRO       0.1149
@<TRIPOS>BOND
     1     1     2   1
     2     1     7   1
     3     2     3   1
     4     2     5   1
     5     3     4   2
     6     3     8  am
     7     5     6   1
     8     6     7   1
     9     8     9   1
    10     9    10   1
    11     9    12   1
    12    10    11   2
    13    10    18  am
    14    12    13   1
    15    13    14   1
    16    13    15   2
    17    14    16   1
    18    15    17   1
    19    16    17   2
    20    18    19   1
    21    19    20   1
    22    19    22   1
    23    20    21   2
    24    20    26  am
    25    22    23   1
    26    23    24   1
    27    23    25   1
    28    26    27   1
    29    27    28   1
    30    27    30   1
    31    28    29   2
    32    28    32  am
    33    30    31   1
    34    32    33   1
    35    33    34   1
    36    33    41   1
    37    34    35   1
    38    35    36  ar
    39    35    37  ar
    40    36    38  ar
    41    37    39  ar
    42    38    40  ar
    43    39    40  ar
    44    41    42   1
    45    42    43   1
    46    43    44   1
    47    43    48   1
    48    44    45   1
    49    45    46   1
    50    46    47   1
    51    48    49   2
    52    48    50  am
    53    50    51   1
    54    51    52   1
    55    51    54   1
    56    52    53   2
    57    52    55  am
    58    55    56   1
    59    56    57   1
    60    56    59   1
    61    57    58  ar
    62    57    65  ar
    63    59    60   1
    64    60    61   1
    65    60    62   2
    66    61    63   1
    67    62    64   1
    68    63    64   2
    69     1    66   1
    70     1    67   1
    71     2    68   1
    72     5    69   1
    73     5    70   1
    74     6    71   1
    75     6    72   1
    76     7    73   1
    77     7    74   1
    78     8    75   1
    79     9    76   1
    80    12    77   1
    81    12    78   1
    82    14    79   1
    83    15    80   1
    84    16    81   1
    85    18    82   1
    86    19    83   1
    87    22    84   1
    88    22    85   1
    89    23    86   1
    90    24    87   1
    91    24    88   1
    92    24    89   1
    93    25    90   1
    94    25    91   1
    95    25    92   1
    96    26    93   1
    97    27    94   1
    98    30    95   1
    99    30    96   1
   100    31    97   1
   101    32    98   1
   102    33    99   1
   103    34   100   1
   104    34   101   1
   105    36   102   1
   106    37   103   1
   107    38   104   1
   108    39   105   1
   109    40   106   1
   110    41   107   1
   111    41   108   1
   112    42   109   1
   113    42   110   1
   114    43   111   1
   115    44   112   1
   116    44   113   1
   117    45   114   1
   118    45   115   1
   119    47   116   1
   120    47   117   1
   121    47   118   1
   122    50   119   1
   123    51   120   1
   124    54   121   1
   125    54   122   1
   126    54   123   1
   127    55   124   1
   128    56   125   1
   129    59   126   1
   130    59   127   1
   131    61   128   1
   132    62   129   1
   133    63   130   1
@<TRIPOS>SUBSTRUCTURE
     1  PRO      2

