@<TRIPOS>MOLECULE
3uri_ligand_043
   130   133
SMALL
GAST_HUCK
****
This file was generated by PARSER (from files_GN.cpp)

@<TRIPOS>ATOM
      1 N           6.2389   27.3894   16.9407 N.4         1 PRO       0.2461
      2 CA          6.0402   28.0549   18.2383 C.3         1 PRO       0.0670
      3 C           4.6298   28.1115   18.5955 C.2         1 PRO       0.2269
      4 O           4.0810   29.1841   18.8061 O.2         1 PRO      -0.3907
      5 CB          6.7780   29.3983   18.0433 C.3         1 PRO       0.0127
      6 CG          8.0125   29.0117   17.2181 C.3         1 PRO      -0.0053
      7 CD          7.5449   27.7944   16.3964 C.3         1 PRO      -0.0313
      8 N           3.9633   26.9662   18.6626 N.am        1 PRO      -0.2592
      9 CA          2.5510   26.7285   18.7983 C.3         1 PRO       0.1422
     10 C           1.8229   27.6811   19.6366 C.2         1 PRO       0.2060
     11 O           0.9598   28.3769   19.1160 O.2         1 PRO      -0.3942
     12 CB          2.2994   25.2473   19.2238 C.3         1 PRO       0.0427
     13 CG          2.8457   24.8593   20.5439 C.2         1 PRO       0.0561
     14 ND1         4.1371   24.6545   20.8460 N.pl3       1 PRO      -0.2623
     15 CD2         2.1369   24.6224   21.7214 C.2         1 PRO      -0.0276
     16 CE1         4.2301   24.3230   22.1409 C.2         1 PRO       0.0875
     17 NE2         3.0052   24.2978   22.6947 N.2         1 PRO      -0.3437
     18 N           2.0911   27.7919   20.9333 N.am        1 PRO      -0.2636
     19 CA          1.4445   28.6590   21.8870 C.3         1 PRO       0.1312
     20 C           2.4677   29.4661   22.5477 C.2         1 PRO       0.2040
     21 O           3.3878   28.8985   23.1284 O.2         1 PRO      -0.3944
     22 CB          0.5715   27.8195   22.8860 C.3         1 PRO      -0.0101
     23 CG         -0.7886   28.4587   23.3350 C.3         1 PRO      -0.0425
     24 CD1        -0.6186   29.8619   23.9837 C.3         1 PRO      -0.0625
     25 CD2        -1.8555   28.4783   22.2043 C.3         1 PRO      -0.0625
     26 N           2.4071   30.7909   22.4802 N.am        1 PRO      -0.2616
     27 CA          3.3381   31.7812   22.9575 C.3         1 PRO       0.1538
     28 C           4.6399   31.7818   22.2809 C.2         1 PRO       0.2045
     29 O           5.0400   30.7614   21.7363 O.2         1 PRO      -0.3944
     30 CB          3.4398   31.8124   24.5119 C.3         1 PRO       0.0843
     31 OG          4.4797   30.9889   25.0440 O.3         1 PRO      -0.3903
     32 N           5.3371   32.9118   22.2006 N.am        1 PRO      -0.2748
     33 C1          6.6219   33.1545   21.5944 C.3         1 PRO       0.0911
     34 C2          7.7972   32.5732   22.4384 C.3         1 PRO       0.0089
     35 C3          7.8251   31.0967   22.6007 C.ar        1 PRO      -0.0406
     36 C4          8.4929   30.2697   21.6594 C.ar        1 PRO      -0.0603
     37 C5          7.2004   30.4730   23.7098 C.ar        1 PRO      -0.0603
     38 C6          8.4937   28.8676   21.7993 C.ar        1 PRO      -0.0686
     39 C7          7.1933   29.0741   23.8460 C.ar        1 PRO      -0.0686
     40 C8          7.8358   28.2696   22.8885 C.ar        1 PRO      -0.0687
     41 C9          6.7086   32.8349   20.0691 C.3         1 PRO      -0.0062
     42 N2          5.8991   33.7747   19.2608 N.4         1 PRO       0.2479
     43 C10         5.8937   33.7298   17.7592 C.3         1 PRO       0.0676
     44 C11         7.1752   33.1246   17.0773 C.3         1 PRO       0.0169
     45 C12         7.2388   32.9563   15.5291 C.3         1 PRO       0.0007
     46 SD          6.0456   33.9313   14.5684 S.3         1 PRO      -0.1638
     47 C13         5.7334   32.7034   13.2718 C.3         1 PRO      -0.0181
     48 C           4.5742   33.2716   17.3176 C.2         1 PRO       0.2268
     49 O           3.6183   33.9844   17.5981 O.2         1 PRO      -0.3907
     50 N           4.3684   32.1536   16.6207 N.am        1 PRO      -0.2613
     51 CA          3.1609   31.7110   15.9533 C.3         1 PRO       0.1283
     52 C           2.6570   32.7020   15.0027 C.2         1 PRO       0.2032
     53 O           2.7665   33.8856   15.2843 O.2         1 PRO      -0.3944
     54 CB          2.0519   31.2365   16.9307 C.3         1 PRO      -0.0244
     55 N           2.0352   32.3275   13.8834 N.am        1 PRO      -0.2677
     56 CA          1.4191   33.1346   12.8587 C.3         1 PRO       0.1056
     57 C           1.4724   34.6096   13.0162 C.2         1 PRO       0.0621
     58 O           0.3868   35.3467   13.3684 O.co2       1 PRO      -0.5664
     59 CB          0.0178   32.5327   12.5194 C.3         1 PRO       0.0372
     60 CG         -0.9964   32.6521   13.5918 C.2         1 PRO       0.0555
     61 ND1        -1.4454   33.7825   14.1558 N.pl3       1 PRO      -0.2623
     62 CD2        -1.6965   31.6078   14.1974 C.2         1 PRO      -0.0276
     63 CE1        -2.3931   33.4579   15.0533 C.2         1 PRO       0.0875
     64 NE2        -2.5559   32.1240   15.0905 N.2         1 PRO      -0.3437
     65 OXT         2.6564   35.2552   12.9147 O.co2       1 PRO      -0.5664
     66 H1          5.5051   27.6788   16.2910 H           1 PRO       0.2035
     67 H2          6.2171   26.3798   17.0633 H           1 PRO       0.2035
     68 H3          6.5646   27.4845   19.0146 H           1 PRO       0.1099
     69 H4          7.0493   29.8532   18.9999 H           1 PRO       0.0347
     70 H5          6.1614   30.0954   17.4691 H           1 PRO       0.0347
     71 H6          8.8340   28.7281   17.8825 H           1 PRO       0.0320
     72 H7          8.3369   29.8365   16.5751 H           1 PRO       0.0320
     73 H8          7.4340   28.0459   15.3405 H           1 PRO       0.0814
     74 H9          8.2535   26.9698   16.4838 H           1 PRO       0.0814
     75 H10         4.4858   26.1860   18.4256 H           1 PRO       0.1886
     76 H11         2.1664   26.8145   17.7767 H           1 PRO       0.0824
     77 H12         2.7533   24.5869   18.4859 H           1 PRO       0.0491
     78 H13         1.2252   25.0540   19.2026 H           1 PRO       0.0491
     79 H14         4.8836   24.7388   20.2357 H           1 PRO       0.2386
     80 H15         1.1210   24.6873   21.8396 H           1 PRO       0.0324
     81 H16         5.1013   24.1182   22.6340 H           1 PRO       0.1149
     82 H17         2.7653   27.1937   21.2929 H           1 PRO       0.1883
     83 H18         0.7799   29.3370   21.3464 H           1 PRO       0.0800
     84 H19         1.1513   27.5853   23.7871 H           1 PRO       0.0315
     85 H20         0.3351   26.8479   22.4352 H           1 PRO       0.0315
     86 H21        -1.1872   27.8003   24.1185 H           1 PRO       0.0298
     87 H22        -1.5741   30.1967   24.3959 H           1 PRO       0.0232
     88 H23        -0.2851   30.5940   23.2461 H           1 PRO       0.0232
     89 H24         0.1104   29.8171   24.7960 H           1 PRO       0.0232
     90 H25        -1.9692   27.4825   21.7708 H           1 PRO       0.0232
     91 H26        -1.5826   29.1748   21.4117 H           1 PRO       0.0232
     92 H27        -2.8212   28.7840   22.6088 H           1 PRO       0.0232
     93 H28         1.6234   31.1480   22.0395 H           1 PRO       0.1884
     94 H29         2.8535   32.7241   22.6940 H           1 PRO       0.0823
     95 H30         2.4847   31.4945   24.9543 H           1 PRO       0.0606
     96 H31         3.6336   32.8411   24.8450 H           1 PRO       0.0606
     97 H32         4.1892   30.0688   24.8731 H           1 PRO       0.2097
     98 H33         4.9276   33.6835   22.6193 H           1 PRO       0.1859
     99 H34         6.7564   34.2383   21.6608 H           1 PRO       0.0632
    100 H35         7.7583   33.0379   23.4251 H           1 PRO       0.0450
    101 H36         8.7487   32.8927   22.0051 H           1 PRO       0.0450
    102 H37         8.9782   30.6805   20.8572 H           1 PRO       0.0557
    103 H38         6.7276   31.0397   24.4153 H           1 PRO       0.0557
    104 H39         8.9708   28.2800   21.1083 H           1 PRO       0.0599
    105 H40         6.7199   28.6420   24.6445 H           1 PRO       0.0599
    106 H41         7.8354   27.2523   22.9942 H           1 PRO       0.0559
    107 H42         6.3574   31.8195   19.8821 H           1 PRO       0.0839
    108 H43         7.7530   32.9179   19.7464 H           1 PRO       0.0839
    109 H44         6.1738   34.7238   19.5318 H           1 PRO       0.2036
    110 H45         4.9274   33.6538   19.5650 H           1 PRO       0.2036
    111 H46         5.9305   34.7765   17.4505 H           1 PRO       0.1099
    112 H47         7.3750   32.1383   17.4898 H           1 PRO       0.0354
    113 H48         8.0214   33.7556   17.3679 H           1 PRO       0.0354
    114 H49         7.1126   31.8978   15.2813 H           1 PRO       0.0380
    115 H50         8.2431   33.2413   15.1852 H           1 PRO       0.0380
    116 H51         5.1813   33.1717   12.4544 H           1 PRO       0.0340
    117 H52         5.1420   31.8771   13.6743 H           1 PRO       0.0340
    118 H53         6.6727   32.3074   12.8806 H           1 PRO       0.0340
    119 H54         5.1400   31.5774   16.4931 H           1 PRO       0.1884
    120 H55         3.4683   30.8189   15.3933 H           1 PRO       0.0797
    121 H56         1.2424   30.7580   16.3780 H           1 PRO       0.0277
    122 H57         1.6355   32.0773   17.4802 H           1 PRO       0.0277
    123 H58         2.4529   30.5242   17.6487 H           1 PRO       0.0277
    124 H59         1.9168   31.3731   13.7733 H           1 PRO       0.1877
    125 H60         2.0272   32.9541   11.9711 H           1 PRO       0.0750
    126 H61         0.1560   31.4709   12.2915 H           1 PRO       0.0484
    127 H62        -0.3818   33.0002   11.6142 H           1 PRO       0.0484
    128 H63        -1.1475   34.6825   13.9353 H           1 PRO       0.2386
    129 H64        -1.5908   30.6114   13.9976 H           1 PRO       0.0324
    130 H65        -2.9177   34.1330   15.6094 H           1 PRO       0.1149
@<TRIPOS>BOND
     1     1     2   1
     2     1     7   1
     3     2     3   1
     4     2     5   1
     5     3     4   2
     6     3     8  am
     7     5     6   1
     8     6     7   1
     9     8     9   1
    10     9    10   1
    11     9    12   1
    12    10    11   2
    13    10    18  am
    14    12    13   1
    15    13    14   1
    16    13    15   2
    17    14    16   1
    18    15    17   1
    19    16    17   2
    20    18    19   1
    21    19    20   1
    22    19    22   1
    23    20    21   2
    24    20    26  am
    25    22    23   1
    26    23    24   1
    27    23    25   1
    28    26    27   1
    29    27    28   1
    30    27    30   1
    31    28    29   2
    32    28    32  am
    33    30    31   1
    34    32    33   1
    35    33    34   1
    36    33    41   1
    37    34    35   1
    38    35    36  ar
    39    35    37  ar
    40    36    38  ar
    41    37    39  ar
    42    38    40  ar
    43    39    40  ar
    44    41    42   1
    45    42    43   1
    46    43    44   1
    47    43    48   1
    48    44    45   1
    49    45    46   1
    50    46    47   1
    51    48    49   2
    52    48    50  am
    53    50    51   1
    54    51    52   1
    55    51    54   1
    56    52    53   2
    57    52    55  am
    58    55    56   1
    59    56    57   1
    60    56    59   1
    61    57    58  ar
    62    57    65  ar
    63    59    60   1
    64    60    61   1
    65    60    62   2
    66    61    63   1
    67    62    64   1
    68    63    64   2
    69     1    66   1
    70     1    67   1
    71     2    68   1
    72     5    69   1
    73     5    70   1
    74     6    71   1
    75     6    72   1
    76     7    73   1
    77     7    74   1
    78     8    75   1
    79     9    76   1
    80    12    77   1
    81    12    78   1
    82    14    79   1
    83    15    80   1
    84    16    81   1
    85    18    82   1
    86    19    83   1
    87    22    84   1
    88    22    85   1
    89    23    86   1
    90    24    87   1
    91    24    88   1
    92    24    89   1
    93    25    90   1
    94    25    91   1
    95    25    92   1
    96    26    93   1
    97    27    94   1
    98    30    95   1
    99    30    96   1
   100    31    97   1
   101    32    98   1
   102    33    99   1
   103    34   100   1
   104    34   101   1
   105    36   102   1
   106    37   103   1
   107    38   104   1
   108    39   105   1
   109    40   106   1
   110    41   107   1
   111    41   108   1
   112    42   109   1
   113    42   110   1
   114    43   111   1
   115    44   112   1
   116    44   113   1
   117    45   114   1
   118    45   115   1
   119    47   116   1
   120    47   117   1
   121    47   118   1
   122    50   119   1
   123    51   120   1
   124    54   121   1
   125    54   122   1
   126    54   123   1
   127    55   124   1
   128    56   125   1
   129    59   126   1
   130    59   127   1
   131    61   128   1
   132    62   129   1
   133    63   130   1
@<TRIPOS>SUBSTRUCTURE
     1  PRO      2

