@<TRIPOS>MOLECULE
3uri_ligand_074
   130   133
SMALL
GAST_HUCK
****
This file was generated by PARSER (from files_GN.cpp)

@<TRIPOS>ATOM
      1 N          -3.4181   38.3283   12.5269 N.4         1 PRO       0.2461
      2 CA         -2.1658   38.4714   13.2895 C.3         1 PRO       0.0670
      3 C          -1.5610   37.1771   13.5477 C.2         1 PRO       0.2269
      4 O          -1.4187   36.7862   14.7020 O.2         1 PRO      -0.3907
      5 CB         -2.6123   39.3063   14.5152 C.3         1 PRO       0.0127
      6 CG         -3.6484   40.2807   13.9349 C.3         1 PRO      -0.0053
      7 CD         -4.1854   39.5745   12.6705 C.3         1 PRO      -0.0313
      8 N          -1.2029   36.4069   12.5239 N.am        1 PRO      -0.2592
      9 CA         -0.6899   35.0652   12.6294 C.3         1 PRO       0.1422
     10 C           0.6834   35.0846   13.1490 C.2         1 PRO       0.2060
     11 O           0.9319   34.4072   14.1380 O.2         1 PRO      -0.3942
     12 CB         -0.9138   34.2528   11.3023 C.3         1 PRO       0.0427
     13 CG          0.2931   33.9259   10.5165 C.2         1 PRO       0.0561
     14 ND1         1.1017   34.8127    9.9313 N.pl3       1 PRO      -0.2623
     15 CD2         0.8835   32.6776   10.3502 C.2         1 PRO      -0.0276
     16 CE1         2.1702   34.1598    9.4508 C.2         1 PRO       0.0875
     17 NE2         2.0426   32.8443    9.7032 N.2         1 PRO      -0.3437
     18 N           1.6084   35.8799   12.6072 N.am        1 PRO      -0.2636
     19 CA          2.9936   36.0856   12.9559 C.3         1 PRO       0.1312
     20 C           3.5995   34.9977   13.7312 C.2         1 PRO       0.2040
     21 O           3.7032   35.1121   14.9487 O.2         1 PRO      -0.3944
     22 CB          3.1512   37.5390   13.5441 C.3         1 PRO      -0.0101
     23 CG          3.4200   38.7153   12.5389 C.3         1 PRO      -0.0425
     24 CD1         4.9078   38.7967   12.0950 C.3         1 PRO      -0.0625
     25 CD2         2.4755   38.7481   11.3061 C.3         1 PRO      -0.0625
     26 N           3.9704   33.8582   13.1505 N.am        1 PRO      -0.2616
     27 CA          4.4954   32.6622   13.7808 C.3         1 PRO       0.1538
     28 C           3.6073   32.0899   14.8036 C.2         1 PRO       0.2045
     29 O           2.4797   32.5388   14.9568 O.2         1 PRO      -0.3944
     30 CB          5.9880   32.8396   14.2136 C.3         1 PRO       0.0843
     31 OG          6.3053   34.1307   14.7244 O.3         1 PRO      -0.3903
     32 N           3.9721   31.0315   15.5270 N.am        1 PRO      -0.2748
     33 C1          3.2534   30.5027   16.6586 C.3         1 PRO       0.0911
     34 C2          2.0536   29.5863   16.2326 C.3         1 PRO       0.0089
     35 C3          0.7540   30.3077   16.0725 C.ar        1 PRO      -0.0406
     36 C4         -0.0323   30.1860   14.9019 C.ar        1 PRO      -0.0603
     37 C5          0.2538   31.1003   17.1377 C.ar        1 PRO      -0.0603
     38 C6         -1.2761   30.8485   14.7967 C.ar        1 PRO      -0.0686
     39 C7         -0.9728   31.7776   17.0251 C.ar        1 PRO      -0.0686
     40 C8         -1.7409   31.6496   15.8564 C.ar        1 PRO      -0.0687
     41 C9          4.2585   29.7884   17.6110 C.3         1 PRO      -0.0062
     42 N2          3.7142   29.8130   18.9916 N.4         1 PRO       0.2479
     43 C10         4.5202   29.2541   20.1224 C.3         1 PRO       0.0676
     44 C11         5.2632   30.4103   20.8847 C.3         1 PRO       0.0169
     45 C12         6.3225   31.1801   20.0415 C.3         1 PRO       0.0007
     46 SD          7.7871   31.7281   20.9557 S.3         1 PRO      -0.1638
     47 C13         7.1395   33.1793   21.8146 C.3         1 PRO      -0.0181
     48 C           3.6698   28.4681   21.0263 C.2         1 PRO       0.2268
     49 O           2.4712   28.3405   20.7925 O.2         1 PRO      -0.3907
     50 N           4.2066   27.8013   22.0407 N.am        1 PRO      -0.2613
     51 CA          3.5493   26.9338   22.9905 C.3         1 PRO       0.1283
     52 C           2.6117   27.6647   23.8457 C.2         1 PRO       0.2032
     53 O           2.8153   27.7560   25.0533 O.2         1 PRO      -0.3944
     54 CB          4.6695   26.1853   23.7648 C.3         1 PRO      -0.0244
     55 N           1.5376   28.2247   23.3059 N.am        1 PRO      -0.2677
     56 CA          0.5487   29.0441   23.9429 C.3         1 PRO       0.1056
     57 C          -0.7520   28.3700   23.7355 C.2         1 PRO       0.0621
     58 O          -1.2182   28.1120   22.4936 O.co2       1 PRO      -0.5664
     59 CB          0.5301   30.4783   23.3234 C.3         1 PRO       0.0372
     60 CG          1.7157   31.3410   23.5257 C.2         1 PRO       0.0555
     61 ND1         1.7181   32.6531   23.2417 N.pl3       1 PRO      -0.2623
     62 CD2         2.9889   31.0607   24.0175 C.2         1 PRO      -0.0276
     63 CE1         2.9204   33.1616   23.5451 C.2         1 PRO       0.0875
     64 NE2         3.7118   32.1881   24.0227 N.2         1 PRO      -0.3437
     65 OXT        -1.4884   27.9535   24.7921 O.co2       1 PRO      -0.5664
     66 H1         -3.9663   37.5576   12.9186 H           1 PRO       0.2035
     67 H2         -3.2215   38.1385   11.5420 H           1 PRO       0.2035
     68 H3         -1.4605   39.0679   12.6977 H           1 PRO       0.1099
     69 H4         -1.7721   39.8322   14.9717 H           1 PRO       0.0347
     70 H5         -3.0946   38.6729   15.2669 H           1 PRO       0.0347
     71 H6         -3.1656   41.2242   13.6615 H           1 PRO       0.0320
     72 H7         -4.4489   40.4864   14.6506 H           1 PRO       0.0320
     73 H8         -5.2499   39.3394   12.7652 H           1 PRO       0.0814
     74 H9         -4.0376   40.2002   11.7844 H           1 PRO       0.0814
     75 H10        -1.3613   36.7576   11.6321 H           1 PRO       0.1886
     76 H11        -1.3327   34.5657   13.3694 H           1 PRO       0.0824
     77 H12        -1.6025   34.7862   10.6391 H           1 PRO       0.0491
     78 H13        -1.4106   33.3071   11.5527 H           1 PRO       0.0491
     79 H14         0.9631   35.7693    9.9155 H           1 PRO       0.2386
     80 H15         0.5193   31.7841   10.6961 H           1 PRO       0.0324
     81 H16         2.9658   34.5928    8.9866 H           1 PRO       0.1149
     82 H17         1.2845   36.4558   11.8982 H           1 PRO       0.1883
     83 H18         3.5360   36.0706   12.0048 H           1 PRO       0.0800
     84 H19         3.9687   37.5657   14.2665 H           1 PRO       0.0315
     85 H20         2.2573   37.7894   14.1259 H           1 PRO       0.0315
     86 H21         3.2265   39.6422   13.0930 H           1 PRO       0.0298
     87 H22         5.0681   39.6719   11.4602 H           1 PRO       0.0232
     88 H23         5.1991   37.9050   11.5393 H           1 PRO       0.0232
     89 H24         5.5598   38.8961   12.9657 H           1 PRO       0.0232
     90 H25         1.4343   38.6702   11.6215 H           1 PRO       0.0232
     91 H26         2.6984   37.9351   10.6140 H           1 PRO       0.0232
     92 H27         2.5979   39.6927   10.7683 H           1 PRO       0.0232
     93 H28         3.7981   33.7895   12.1968 H           1 PRO       0.1884
     94 H29         4.5252   31.9092   12.9893 H           1 PRO       0.0823
     95 H30         6.6394   32.6590   13.3549 H           1 PRO       0.0606
     96 H31         6.2655   32.1142   14.9790 H           1 PRO       0.0606
     97 H32         6.3202   34.7245   13.9363 H           1 PRO       0.2097
     98 H33         4.8499   30.6672   15.3703 H           1 PRO       0.1859
     99 H34         2.8696   31.3537   17.2396 H           1 PRO       0.0632
    100 H35         1.8885   28.8183   16.9911 H           1 PRO       0.0450
    101 H36         2.3246   29.0470   15.3208 H           1 PRO       0.0450
    102 H37         0.2837   29.6092   14.1174 H           1 PRO       0.0557
    103 H38         0.7764   31.1875   18.0098 H           1 PRO       0.0557
    104 H39        -1.8505   30.7319   13.9603 H           1 PRO       0.0599
    105 H40        -1.3115   32.3533   17.8027 H           1 PRO       0.0599
    106 H41        -2.6449   32.1242   15.7825 H           1 PRO       0.0559
    107 H42         5.2103   30.3229   17.5965 H           1 PRO       0.0839
    108 H43         4.4352   28.7601   17.2830 H           1 PRO       0.0839
    109 H44         2.8313   29.2997   18.9423 H           1 PRO       0.2036
    110 H45         3.4779   30.7825   19.2160 H           1 PRO       0.2036
    111 H46         5.2656   28.5522   19.7315 H           1 PRO       0.1099
    112 H47         5.7759   29.9798   21.7482 H           1 PRO       0.0354
    113 H48         4.5293   31.1246   21.2667 H           1 PRO       0.0354
    114 H49         5.8567   32.0421   19.5564 H           1 PRO       0.0380
    115 H50         6.6993   30.5191   19.2616 H           1 PRO       0.0380
    116 H51         7.9508   33.6489   22.3711 H           1 PRO       0.0340
    117 H52         6.3583   32.8815   22.5118 H           1 PRO       0.0340
    118 H53         6.7429   33.8961   21.0967 H           1 PRO       0.0340
    119 H54         5.1704   27.8709   22.1285 H           1 PRO       0.1884
    120 H55         2.9881   26.1658   22.4496 H           1 PRO       0.0797
    121 H56         4.2360   25.4968   24.4911 H           1 PRO       0.0277
    122 H57         5.3133   26.8917   24.2918 H           1 PRO       0.0277
    123 H58         5.2838   25.6063   23.0727 H           1 PRO       0.0277
    124 H59         1.3940   28.0613   22.3608 H           1 PRO       0.1877
    125 H60         0.7243   29.1390   25.0205 H           1 PRO       0.0750
    126 H61        -0.3176   31.0190   23.7499 H           1 PRO       0.0484
    127 H62         0.3619   30.4072   22.2454 H           1 PRO       0.0484
    128 H63         0.9688   33.1603   22.8923 H           1 PRO       0.2386
    129 H64         3.3381   30.1554   24.3299 H           1 PRO       0.0324
    130 H65         3.1879   34.1416   23.4395 H           1 PRO       0.1149
@<TRIPOS>BOND
     1     1     2   1
     2     1     7   1
     3     2     3   1
     4     2     5   1
     5     3     4   2
     6     3     8  am
     7     5     6   1
     8     6     7   1
     9     8     9   1
    10     9    10   1
    11     9    12   1
    12    10    11   2
    13    10    18  am
    14    12    13   1
    15    13    14   1
    16    13    15   2
    17    14    16   1
    18    15    17   1
    19    16    17   2
    20    18    19   1
    21    19    20   1
    22    19    22   1
    23    20    21   2
    24    20    26  am
    25    22    23   1
    26    23    24   1
    27    23    25   1
    28    26    27   1
    29    27    28   1
    30    27    30   1
    31    28    29   2
    32    28    32  am
    33    30    31   1
    34    32    33   1
    35    33    34   1
    36    33    41   1
    37    34    35   1
    38    35    36  ar
    39    35    37  ar
    40    36    38  ar
    41    37    39  ar
    42    38    40  ar
    43    39    40  ar
    44    41    42   1
    45    42    43   1
    46    43    44   1
    47    43    48   1
    48    44    45   1
    49    45    46   1
    50    46    47   1
    51    48    49   2
    52    48    50  am
    53    50    51   1
    54    51    52   1
    55    51    54   1
    56    52    53   2
    57    52    55  am
    58    55    56   1
    59    56    57   1
    60    56    59   1
    61    57    58  ar
    62    57    65  ar
    63    59    60   1
    64    60    61   1
    65    60    62   2
    66    61    63   1
    67    62    64   1
    68    63    64   2
    69     1    66   1
    70     1    67   1
    71     2    68   1
    72     5    69   1
    73     5    70   1
    74     6    71   1
    75     6    72   1
    76     7    73   1
    77     7    74   1
    78     8    75   1
    79     9    76   1
    80    12    77   1
    81    12    78   1
    82    14    79   1
    83    15    80   1
    84    16    81   1
    85    18    82   1
    86    19    83   1
    87    22    84   1
    88    22    85   1
    89    23    86   1
    90    24    87   1
    91    24    88   1
    92    24    89   1
    93    25    90   1
    94    25    91   1
    95    25    92   1
    96    26    93   1
    97    27    94   1
    98    30    95   1
    99    30    96   1
   100    31    97   1
   101    32    98   1
   102    33    99   1
   103    34   100   1
   104    34   101   1
   105    36   102   1
   106    37   103   1
   107    38   104   1
   108    39   105   1
   109    40   106   1
   110    41   107   1
   111    41   108   1
   112    42   109   1
   113    42   110   1
   114    43   111   1
   115    44   112   1
   116    44   113   1
   117    45   114   1
   118    45   115   1
   119    47   116   1
   120    47   117   1
   121    47   118   1
   122    50   119   1
   123    51   120   1
   124    54   121   1
   125    54   122   1
   126    54   123   1
   127    55   124   1
   128    56   125   1
   129    59   126   1
   130    59   127   1
   131    61   128   1
   132    62   129   1
   133    63   130   1
@<TRIPOS>SUBSTRUCTURE
     1  PRO      2

