@<TRIPOS>MOLECULE
3uri_ligand_058
   130   133
SMALL
GAST_HUCK
****
This file was generated by PARSER (from files_GN.cpp)

@<TRIPOS>ATOM
      1 N           2.7194   22.2815   24.3696 N.4         1 PRO       0.2461
      2 CA          4.0486   22.0300   23.7867 C.3         1 PRO       0.0670
      3 C           4.8061   23.2634   23.7184 C.2         1 PRO       0.2269
      4 O           4.9370   23.8633   22.6591 O.2         1 PRO      -0.3907
      5 CB          3.7236   21.3185   22.4545 C.3         1 PRO       0.0127
      6 CG          2.5213   20.4335   22.8163 C.3         1 PRO      -0.0053
      7 CD          1.8356   21.1705   23.9874 C.3         1 PRO      -0.0313
      8 N           5.2974   23.7767   24.8455 N.am        1 PRO      -0.2592
      9 CA          6.0430   25.0027   25.0083 C.3         1 PRO       0.1422
     10 C           5.3674   26.1846   24.4585 C.2         1 PRO       0.2060
     11 O           5.8427   27.2880   24.7113 O.2         1 PRO      -0.3942
     12 CB          7.5140   24.8374   24.4917 C.3         1 PRO       0.0427
     13 CG          8.5197   25.7929   24.9952 C.2         1 PRO       0.0561
     14 ND1         8.5240   26.4908   26.1401 N.pl3       1 PRO      -0.2623
     15 CD2         9.6949   26.1304   24.3319 C.2         1 PRO      -0.0276
     16 CE1         9.6357   27.2396   26.1770 C.2         1 PRO       0.0875
     17 NE2        10.3641   27.0266   25.0702 N.2         1 PRO      -0.3437
     18 N           4.3035   26.0904   23.6619 N.am        1 PRO      -0.2636
     19 CA          3.6007   27.1364   22.9592 C.3         1 PRO       0.1312
     20 C           4.4209   27.8608   21.9890 C.2         1 PRO       0.2040
     21 O           5.6452   27.9126   22.1001 O.2         1 PRO      -0.3944
     22 CB          2.8237   28.0849   23.9332 C.3         1 PRO      -0.0101
     23 CG          1.4770   27.5184   24.4966 C.3         1 PRO      -0.0425
     24 CD1         1.0314   28.2999   25.7663 C.3         1 PRO      -0.0625
     25 CD2         0.3308   27.5295   23.4412 C.3         1 PRO      -0.0625
     26 N           3.8347   28.3681   20.9097 N.am        1 PRO      -0.2616
     27 CA          4.4805   28.9550   19.7705 C.3         1 PRO       0.1538
     28 C           5.3978   30.0238   20.1717 C.2         1 PRO       0.2045
     29 O           6.5926   29.8731   19.9565 O.2         1 PRO      -0.3944
     30 CB          3.3799   29.4192   18.7763 C.3         1 PRO       0.0843
     31 OG          3.8817   30.3117   17.7856 O.3         1 PRO      -0.3903
     32 N           4.9366   31.1271   20.7386 N.am        1 PRO      -0.2748
     33 C1          5.6849   32.2843   21.1628 C.3         1 PRO       0.0911
     34 C2          6.4461   32.0121   22.5027 C.3         1 PRO       0.0089
     35 C3          5.7230   31.3734   23.6453 C.ar        1 PRO      -0.0406
     36 C4          6.4883   30.7921   24.6873 C.ar        1 PRO      -0.0603
     37 C5          4.3153   31.4230   23.8063 C.ar        1 PRO      -0.0603
     38 C6          5.8758   30.2678   25.8404 C.ar        1 PRO      -0.0686
     39 C7          3.6993   30.9056   24.9618 C.ar        1 PRO      -0.0686
     40 C8          4.4786   30.3351   25.9823 C.ar        1 PRO      -0.0687
     41 C9          6.6254   32.9037   20.0695 C.3         1 PRO      -0.0062
     42 N2          6.0685   32.8181   18.6934 N.4         1 PRO       0.2479
     43 C10         6.5695   33.7512   17.6384 C.3         1 PRO       0.0676
     44 C11         8.1313   33.7748   17.5144 C.3         1 PRO       0.0169
     45 C12         8.8182   32.4835   16.9796 C.3         1 PRO       0.0007
     46 SD          9.2136   31.2511   18.2504 S.3         1 PRO      -0.1638
     47 C13        10.8615   31.8351   18.7173 C.3         1 PRO      -0.0181
     48 C           5.9040   33.5140   16.3491 C.2         1 PRO       0.2268
     49 O           5.0608   32.6336   16.2449 O.2         1 PRO      -0.3907
     50 N           6.1995   34.2659   15.2871 N.am        1 PRO      -0.2613
     51 CA          5.6668   34.1903   13.9492 C.3         1 PRO       0.1283
     52 C           4.3213   34.7345   13.7990 C.2         1 PRO       0.2032
     53 O           3.6212   34.8978   14.7972 O.2         1 PRO      -0.3944
     54 CB          5.8555   32.7815   13.3140 C.3         1 PRO      -0.0244
     55 N           3.9020   35.1322   12.5992 N.am        1 PRO      -0.2677
     56 CA          2.8228   36.0307   12.2710 C.3         1 PRO       0.1056
     57 C           1.7307   36.1637   13.2695 C.2         1 PRO       0.0621
     58 O           0.9818   35.0932   13.6239 O.co2       1 PRO      -0.5664
     59 CB          2.2529   35.6918   10.8534 C.3         1 PRO       0.0372
     60 CG          1.2694   34.5857   10.7770 C.2         1 PRO       0.0555
     61 ND1         0.1694   34.5624   10.0095 N.pl3       1 PRO      -0.2623
     62 CD2         1.2835   33.3743   11.4651 C.2         1 PRO      -0.0276
     63 CE1        -0.4619   33.3928   10.1994 C.2         1 PRO       0.0875
     64 NE2         0.2118   32.6533   11.0981 N.2         1 PRO      -0.3437
     65 OXT         1.5504   37.3210   13.9485 O.co2       1 PRO      -0.5664
     66 H1          2.3363   23.1519   23.9889 H           1 PRO       0.2035
     67 H2          2.7819   22.3595   25.3869 H           1 PRO       0.2035
     68 H3          4.5931   21.3240   24.4265 H           1 PRO       0.1099
     69 H4          4.5736   20.7305   22.1029 H           1 PRO       0.0347
     70 H5          3.4339   22.0298   21.6749 H           1 PRO       0.0347
     71 H6          2.8684   19.4464   23.1392 H           1 PRO       0.0320
     72 H7          1.8509   20.3118   21.9611 H           1 PRO       0.0320
     73 H8          0.8669   21.5706   23.6821 H           1 PRO       0.0814
     74 H9          1.6923   20.5009   24.8387 H           1 PRO       0.0814
     75 H10         5.1524   23.2573   25.6552 H           1 PRO       0.1886
     76 H11         6.0878   25.1378   26.0956 H           1 PRO       0.0824
     77 H12         7.5116   24.9080   23.4025 H           1 PRO       0.0491
     78 H13         7.8642   23.8351   24.7541 H           1 PRO       0.0491
     79 H14         7.8381   26.4662   26.8268 H           1 PRO       0.2386
     80 H15         9.9954   25.7691   23.4270 H           1 PRO       0.0324
     81 H16         9.8923   27.8732   26.9346 H           1 PRO       0.1149
     82 H17         3.9765   25.1946   23.4936 H           1 PRO       0.1883
     83 H18         2.8586   26.6052   22.3563 H           1 PRO       0.0800
     84 H19         2.6078   29.0363   23.4385 H           1 PRO       0.0315
     85 H20         3.4901   28.3130   24.7643 H           1 PRO       0.0315
     86 H21         1.6369   26.4779   24.8013 H           1 PRO       0.0298
     87 H22         0.1081   27.8784   26.1709 H           1 PRO       0.0232
     88 H23         0.8620   29.3537   25.5316 H           1 PRO       0.0232
     89 H24         1.7998   28.2315   26.5391 H           1 PRO       0.0232
     90 H25         0.5850   26.9058   22.5813 H           1 PRO       0.0232
     91 H26         0.1407   28.5482   23.0908 H           1 PRO       0.0232
     92 H27        -0.5926   27.1340   23.8755 H           1 PRO       0.0232
     93 H28         2.8681   28.2609   20.8571 H           1 PRO       0.1884
     94 H29         5.0368   28.1620   19.2572 H           1 PRO       0.0823
     95 H30         2.5570   29.9151   19.3027 H           1 PRO       0.0606
     96 H31         2.9679   28.5464   18.2584 H           1 PRO       0.0606
     97 H32         3.8188   31.1921   18.2192 H           1 PRO       0.2097
     98 H33         3.9747   31.1707   20.8700 H           1 PRO       0.1859
     99 H34         4.9310   33.0523   21.3694 H           1 PRO       0.0632
    100 H35         6.8409   32.9617   22.8706 H           1 PRO       0.0450
    101 H36         7.3064   31.3858   22.2556 H           1 PRO       0.0450
    102 H37         7.5071   30.7524   24.6183 H           1 PRO       0.0557
    103 H38         3.7212   31.8555   23.0976 H           1 PRO       0.0557
    104 H39         6.4467   29.8563   26.5831 H           1 PRO       0.0599
    105 H40         2.6848   30.9595   25.0681 H           1 PRO       0.0599
    106 H41         4.0330   29.9662   26.8257 H           1 PRO       0.0559
    107 H42         7.5854   32.3908   20.0819 H           1 PRO       0.0839
    108 H43         6.8111   33.9467   20.3278 H           1 PRO       0.0839
    109 H44         5.0600   32.9754   18.7810 H           1 PRO       0.2036
    110 H45         6.2083   31.8604   18.3583 H           1 PRO       0.2036
    111 H46         6.2590   34.7541   17.9494 H           1 PRO       0.1099
    112 H47         8.5582   34.0555   18.4775 H           1 PRO       0.0354
    113 H48         8.3933   34.5937   16.8398 H           1 PRO       0.0354
    114 H49         9.7439   32.7522   16.4652 H           1 PRO       0.0380
    115 H50         8.1753   31.9987   16.2424 H           1 PRO       0.0380
    116 H51        11.2877   31.1478   19.4487 H           1 PRO       0.0340
    117 H52        10.8062   32.8267   19.1660 H           1 PRO       0.0340
    118 H53        11.5162   31.8670   17.8444 H           1 PRO       0.0340
    119 H54         6.8752   34.9476   15.4234 H           1 PRO       0.1884
    120 H55         6.3014   34.8696   13.3710 H           1 PRO       0.0797
    121 H56         5.6612   32.8098   12.2405 H           1 PRO       0.0277
    122 H57         5.1810   32.0505   13.7621 H           1 PRO       0.0277
    123 H58         6.8837   32.4461   13.4627 H           1 PRO       0.0277
    124 H59         4.5203   34.9544   11.8695 H           1 PRO       0.1877
    125 H60         3.2981   37.0135   12.1794 H           1 PRO       0.0750
    126 H61         3.0826   35.4341   10.1886 H           1 PRO       0.0484
    127 H62         1.7870   36.5932   10.4427 H           1 PRO       0.0484
    128 H63        -0.1156   35.2640    9.4032 H           1 PRO       0.2386
    129 H64         1.9823   33.0769   12.1457 H           1 PRO       0.0324
    130 H65        -1.3234   33.1056    9.7328 H           1 PRO       0.1149
@<TRIPOS>BOND
     1     1     2   1
     2     1     7   1
     3     2     3   1
     4     2     5   1
     5     3     4   2
     6     3     8  am
     7     5     6   1
     8     6     7   1
     9     8     9   1
    10     9    10   1
    11     9    12   1
    12    10    11   2
    13    10    18  am
    14    12    13   1
    15    13    14   1
    16    13    15   2
    17    14    16   1
    18    15    17   1
    19    16    17   2
    20    18    19   1
    21    19    20   1
    22    19    22   1
    23    20    21   2
    24    20    26  am
    25    22    23   1
    26    23    24   1
    27    23    25   1
    28    26    27   1
    29    27    28   1
    30    27    30   1
    31    28    29   2
    32    28    32  am
    33    30    31   1
    34    32    33   1
    35    33    34   1
    36    33    41   1
    37    34    35   1
    38    35    36  ar
    39    35    37  ar
    40    36    38  ar
    41    37    39  ar
    42    38    40  ar
    43    39    40  ar
    44    41    42   1
    45    42    43   1
    46    43    44   1
    47    43    48   1
    48    44    45   1
    49    45    46   1
    50    46    47   1
    51    48    49   2
    52    48    50  am
    53    50    51   1
    54    51    52   1
    55    51    54   1
    56    52    53   2
    57    52    55  am
    58    55    56   1
    59    56    57   1
    60    56    59   1
    61    57    58  ar
    62    57    65  ar
    63    59    60   1
    64    60    61   1
    65    60    62   2
    66    61    63   1
    67    62    64   1
    68    63    64   2
    69     1    66   1
    70     1    67   1
    71     2    68   1
    72     5    69   1
    73     5    70   1
    74     6    71   1
    75     6    72   1
    76     7    73   1
    77     7    74   1
    78     8    75   1
    79     9    76   1
    80    12    77   1
    81    12    78   1
    82    14    79   1
    83    15    80   1
    84    16    81   1
    85    18    82   1
    86    19    83   1
    87    22    84   1
    88    22    85   1
    89    23    86   1
    90    24    87   1
    91    24    88   1
    92    24    89   1
    93    25    90   1
    94    25    91   1
    95    25    92   1
    96    26    93   1
    97    27    94   1
    98    30    95   1
    99    30    96   1
   100    31    97   1
   101    32    98   1
   102    33    99   1
   103    34   100   1
   104    34   101   1
   105    36   102   1
   106    37   103   1
   107    38   104   1
   108    39   105   1
   109    40   106   1
   110    41   107   1
   111    41   108   1
   112    42   109   1
   113    42   110   1
   114    43   111   1
   115    44   112   1
   116    44   113   1
   117    45   114   1
   118    45   115   1
   119    47   116   1
   120    47   117   1
   121    47   118   1
   122    50   119   1
   123    51   120   1
   124    54   121   1
   125    54   122   1
   126    54   123   1
   127    55   124   1
   128    56   125   1
   129    59   126   1
   130    59   127   1
   131    61   128   1
   132    62   129   1
   133    63   130   1
@<TRIPOS>SUBSTRUCTURE
     1  PRO      2

