@<TRIPOS>MOLECULE
3uri_ligand_052
   130   133
SMALL
GAST_HUCK
****
This file was generated by PARSER (from files_GN.cpp)

@<TRIPOS>ATOM
      1 N           0.2958   23.8674   19.3242 N.4         1 PRO       0.2461
      2 CA         -0.8479   24.7432   19.6529 C.3         1 PRO       0.0670
      3 C          -0.7390   26.0882   19.1213 C.2         1 PRO       0.2269
      4 O           0.1973   26.3740   18.3769 O.2         1 PRO      -0.3907
      5 CB         -0.8963   24.6547   21.1943 C.3         1 PRO       0.0127
      6 CG         -0.5575   23.1803   21.4784 C.3         1 PRO      -0.0053
      7 CD          0.3231   22.7550   20.2861 C.3         1 PRO      -0.0313
      8 N          -1.7049   26.9705   19.3561 N.am        1 PRO      -0.2592
      9 CA         -1.8325   28.2909   18.7988 C.3         1 PRO       0.1422
     10 C          -0.6299   29.0931   18.9964 C.2         1 PRO       0.2060
     11 O          -0.1999   29.7551   18.0537 O.2         1 PRO      -0.3942
     12 CB         -3.1137   28.9594   19.3797 C.3         1 PRO       0.0427
     13 CG         -3.5039   30.2046   18.6912 C.2         1 PRO       0.0561
     14 ND1        -3.7125   30.3560   17.3768 N.pl3       1 PRO      -0.2623
     15 CD2        -3.7807   31.4430   19.2722 C.2         1 PRO      -0.0276
     16 CE1        -4.0838   31.6200   17.1426 C.2         1 PRO       0.0875
     17 NE2        -4.1406   32.2982   18.3058 N.2         1 PRO      -0.3437
     18 N           0.0201   29.0802   20.1572 N.am        1 PRO      -0.2636
     19 CA          1.2663   29.7451   20.4412 C.3         1 PRO       0.1312
     20 C           2.4220   28.9979   19.9538 C.2         1 PRO       0.2040
     21 O           2.4059   27.7688   20.0015 O.2         1 PRO      -0.3944
     22 CB          1.3980   30.1459   21.9467 C.3         1 PRO      -0.0101
     23 CG          1.9256   29.1002   22.9845 C.3         1 PRO      -0.0425
     24 CD1         2.2957   29.7981   24.3253 C.3         1 PRO      -0.0625
     25 CD2         0.9323   27.9387   23.2503 C.3         1 PRO      -0.0625
     26 N           3.4549   29.6427   19.4113 N.am        1 PRO      -0.2616
     27 CA          4.6806   29.0712   18.9058 C.3         1 PRO       0.1538
     28 C           5.8191   29.9285   19.2438 C.2         1 PRO       0.2045
     29 O           6.7286   30.0946   18.4397 O.2         1 PRO      -0.3944
     30 CB          4.4868   28.8500   17.3732 C.3         1 PRO       0.0843
     31 OG          5.5581   28.0807   16.8247 O.3         1 PRO      -0.3903
     32 N           5.8341   30.5904   20.3987 N.am        1 PRO      -0.2748
     33 C1          6.6715   31.6915   20.7896 C.3         1 PRO       0.0911
     34 C2          8.0187   31.2445   21.4393 C.3         1 PRO       0.0089
     35 C3          8.9536   30.4955   20.5520 C.ar        1 PRO      -0.0406
     36 C4          9.8795   31.1792   19.7265 C.ar        1 PRO      -0.0603
     37 C5          8.9333   29.0808   20.5159 C.ar        1 PRO      -0.0603
     38 C6         10.7206   30.4736   18.8500 C.ar        1 PRO      -0.0686
     39 C7          9.7936   28.3740   19.6576 C.ar        1 PRO      -0.0686
     40 C8         10.6736   29.0663   18.8111 C.ar        1 PRO      -0.0687
     41 C9          6.8196   32.8313   19.7241 C.3         1 PRO      -0.0062
     42 N2          5.8625   32.7331   18.5856 N.4         1 PRO       0.2479
     43 C10         5.7336   33.8938   17.6699 C.3         1 PRO       0.0676
     44 C11         7.0371   34.2444   16.8586 C.3         1 PRO       0.0169
     45 C12         7.0690   34.2549   15.3028 C.3         1 PRO       0.0007
     46 SD          7.2533   32.6770   14.4247 S.3         1 PRO      -0.1638
     47 C13         8.2401   31.7236   15.6040 C.3         1 PRO      -0.0181
     48 C           4.5165   33.6888   16.8760 C.2         1 PRO       0.2268
     49 O           3.4488   34.0918   17.3227 O.2         1 PRO      -0.3907
     50 N           4.5586   33.0118   15.7304 N.am        1 PRO      -0.2613
     51 CA          3.5140   32.7816   14.7589 C.3         1 PRO       0.1283
     52 C           3.3397   33.9229   13.8539 C.2         1 PRO       0.2032
     53 O           3.1879   35.0418   14.3323 O.2         1 PRO      -0.3944
     54 CB          2.1768   32.3169   15.4085 C.3         1 PRO      -0.0244
     55 N           3.3042   33.7550   12.5311 N.am        1 PRO      -0.2677
     56 CA          3.1379   34.7213   11.4675 C.3         1 PRO       0.1056
     57 C           3.4239   36.1411   11.7943 C.2         1 PRO       0.0621
     58 O           2.6764   37.1709   11.3274 O.co2       1 PRO      -0.5664
     59 CB          1.7945   34.4645   10.7097 C.3         1 PRO       0.0372
     60 CG          0.5998   35.1492   11.2404 C.2         1 PRO       0.0555
     61 ND1        -0.4130   35.6270   10.4893 N.pl3       1 PRO      -0.2623
     62 CD2         0.2488   35.4151   12.5635 C.2         1 PRO      -0.0276
     63 CE1        -1.3245   36.1703   11.2954 C.2         1 PRO       0.0875
     64 NE2        -0.9263   36.0619   12.5797 N.2         1 PRO      -0.3437
     65 OXT         4.5497   36.4478   12.4795 O.co2       1 PRO      -0.5664
     66 H1          1.1599   24.4036   19.4270 H           1 PRO       0.2035
     67 H2          0.2198   23.5220   18.3706 H           1 PRO       0.2035
     68 H3         -1.7581   24.2890   19.2420 H           1 PRO       0.1099
     69 H4         -1.8808   24.9253   21.5924 H           1 PRO       0.0347
     70 H5         -0.1335   25.2994   21.6432 H           1 PRO       0.0347
     71 H6         -1.4774   22.5857   21.5038 H           1 PRO       0.0320
     72 H7         -0.0370   23.0672   22.4336 H           1 PRO       0.0320
     73 H8          1.3524   22.5771   20.6026 H           1 PRO       0.0814
     74 H9         -0.0637   21.8502   19.8147 H           1 PRO       0.0814
     75 H10        -2.4269   26.6694   19.9299 H           1 PRO       0.1886
     76 H11        -2.0048   28.1630   17.7247 H           1 PRO       0.0824
     77 H12        -2.9791   29.1506   20.4495 H           1 PRO       0.0491
     78 H13        -3.9507   28.2616   19.2752 H           1 PRO       0.0491
     79 H14        -3.6039   29.6649   16.7017 H           1 PRO       0.2386
     80 H15        -3.7308   31.6639   20.2664 H           1 PRO       0.0324
     81 H16        -4.3056   32.0080   16.2237 H           1 PRO       0.1149
     82 H17        -0.3907   28.5827   20.8796 H           1 PRO       0.1883
     83 H18         1.2148   30.6959   19.8983 H           1 PRO       0.0800
     84 H19         0.4233   30.5060   22.2780 H           1 PRO       0.0315
     85 H20         2.0733   31.0056   21.9782 H           1 PRO       0.0315
     86 H21         2.8509   28.6649   22.5977 H           1 PRO       0.0298
     87 H22         2.7143   29.0723   25.0274 H           1 PRO       0.0232
     88 H23         1.4132   30.2554   24.7809 H           1 PRO       0.0232
     89 H24         3.0464   30.5753   24.1597 H           1 PRO       0.0232
     90 H25         0.8151   27.3295   22.3528 H           1 PRO       0.0232
     91 H26        -0.0464   28.3263   23.5485 H           1 PRO       0.0232
     92 H27         1.3067   27.2857   24.0442 H           1 PRO       0.0232
     93 H28         3.3912   30.6171   19.3877 H           1 PRO       0.1884
     94 H29         4.8765   28.0964   19.3667 H           1 PRO       0.0823
     95 H30         4.4323   29.8143   16.8558 H           1 PRO       0.0606
     96 H31         3.5558   28.3054   17.1945 H           1 PRO       0.0606
     97 H32         5.6503   28.4016   15.9058 H           1 PRO       0.2097
     98 H33         5.1009   30.4012   21.0049 H           1 PRO       0.1859
     99 H34         6.1003   32.1499   21.6044 H           1 PRO       0.0632
    100 H35         7.7882   30.6344   22.3167 H           1 PRO       0.0450
    101 H36         8.5244   32.1333   21.8300 H           1 PRO       0.0450
    102 H37         9.9447   32.2003   19.7541 H           1 PRO       0.0557
    103 H38         8.2854   28.5566   21.1077 H           1 PRO       0.0557
    104 H39        11.3729   30.9774   18.2450 H           1 PRO       0.0599
    105 H40         9.7681   27.3496   19.6404 H           1 PRO       0.0599
    106 H41        11.2938   28.5534   18.1748 H           1 PRO       0.0559
    107 H42         7.8170   32.7966   19.2958 H           1 PRO       0.0839
    108 H43         6.7127   33.7945   20.2343 H           1 PRO       0.0839
    109 H44         4.9421   32.5729   18.9904 H           1 PRO       0.2036
    110 H45         6.1102   31.9103   18.0335 H           1 PRO       0.2036
    111 H46         5.5469   34.7528   18.3321 H           1 PRO       0.1099
    112 H47         7.8672   33.6309   17.2018 H           1 PRO       0.0354
    113 H48         7.3220   35.2577   17.1426 H           1 PRO       0.0354
    114 H49         7.8952   34.8901   14.9853 H           1 PRO       0.0380
    115 H50         6.1485   34.7107   14.9322 H           1 PRO       0.0380
    116 H51         8.5777   30.8058   15.1169 H           1 PRO       0.0340
    117 H52         7.6278   31.4507   16.4713 H           1 PRO       0.0340
    118 H53         9.1164   32.2921   15.9387 H           1 PRO       0.0340
    119 H54         5.4212   32.6248   15.5054 H           1 PRO       0.1884
    120 H55         3.8681   31.9247   14.1707 H           1 PRO       0.0797
    121 H56         1.4835   31.9876   14.6281 H           1 PRO       0.0277
    122 H57         1.7044   33.1270   15.9772 H           1 PRO       0.0277
    123 H58         2.3643   31.4766   16.0821 H           1 PRO       0.0277
    124 H59         3.3588   32.8442   12.2019 H           1 PRO       0.1877
    125 H60         3.9189   34.4508   10.7471 H           1 PRO       0.0750
    126 H61         1.5809   33.3926   10.6965 H           1 PRO       0.0484
    127 H62         1.9250   34.7676    9.6670 H           1 PRO       0.0484
    128 H63        -0.4641   35.5829    9.5211 H           1 PRO       0.2386
    129 H64         0.7979   35.1764   13.3914 H           1 PRO       0.0324
    130 H65        -2.1936   36.6170   10.9895 H           1 PRO       0.1149
@<TRIPOS>BOND
     1     1     2   1
     2     1     7   1
     3     2     3   1
     4     2     5   1
     5     3     4   2
     6     3     8  am
     7     5     6   1
     8     6     7   1
     9     8     9   1
    10     9    10   1
    11     9    12   1
    12    10    11   2
    13    10    18  am
    14    12    13   1
    15    13    14   1
    16    13    15   2
    17    14    16   1
    18    15    17   1
    19    16    17   2
    20    18    19   1
    21    19    20   1
    22    19    22   1
    23    20    21   2
    24    20    26  am
    25    22    23   1
    26    23    24   1
    27    23    25   1
    28    26    27   1
    29    27    28   1
    30    27    30   1
    31    28    29   2
    32    28    32  am
    33    30    31   1
    34    32    33   1
    35    33    34   1
    36    33    41   1
    37    34    35   1
    38    35    36  ar
    39    35    37  ar
    40    36    38  ar
    41    37    39  ar
    42    38    40  ar
    43    39    40  ar
    44    41    42   1
    45    42    43   1
    46    43    44   1
    47    43    48   1
    48    44    45   1
    49    45    46   1
    50    46    47   1
    51    48    49   2
    52    48    50  am
    53    50    51   1
    54    51    52   1
    55    51    54   1
    56    52    53   2
    57    52    55  am
    58    55    56   1
    59    56    57   1
    60    56    59   1
    61    57    58  ar
    62    57    65  ar
    63    59    60   1
    64    60    61   1
    65    60    62   2
    66    61    63   1
    67    62    64   1
    68    63    64   2
    69     1    66   1
    70     1    67   1
    71     2    68   1
    72     5    69   1
    73     5    70   1
    74     6    71   1
    75     6    72   1
    76     7    73   1
    77     7    74   1
    78     8    75   1
    79     9    76   1
    80    12    77   1
    81    12    78   1
    82    14    79   1
    83    15    80   1
    84    16    81   1
    85    18    82   1
    86    19    83   1
    87    22    84   1
    88    22    85   1
    89    23    86   1
    90    24    87   1
    91    24    88   1
    92    24    89   1
    93    25    90   1
    94    25    91   1
    95    25    92   1
    96    26    93   1
    97    27    94   1
    98    30    95   1
    99    30    96   1
   100    31    97   1
   101    32    98   1
   102    33    99   1
   103    34   100   1
   104    34   101   1
   105    36   102   1
   106    37   103   1
   107    38   104   1
   108    39   105   1
   109    40   106   1
   110    41   107   1
   111    41   108   1
   112    42   109   1
   113    42   110   1
   114    43   111   1
   115    44   112   1
   116    44   113   1
   117    45   114   1
   118    45   115   1
   119    47   116   1
   120    47   117   1
   121    47   118   1
   122    50   119   1
   123    51   120   1
   124    54   121   1
   125    54   122   1
   126    54   123   1
   127    55   124   1
   128    56   125   1
   129    59   126   1
   130    59   127   1
   131    61   128   1
   132    62   129   1
   133    63   130   1
@<TRIPOS>SUBSTRUCTURE
     1  PRO      2

