@<TRIPOS>MOLECULE
3uri_ligand_027
   130   133
SMALL
GAST_HUCK
****
This file was generated by PARSER (from files_GN.cpp)

@<TRIPOS>ATOM
      1 N          -7.5969   26.6823   23.8922 N.4         1 PRO       0.2461
      2 CA         -7.1831   26.8114   22.4825 C.3         1 PRO       0.0670
      3 C          -5.7305   26.7390   22.3539 C.2         1 PRO       0.2269
      4 O          -5.0385   27.5166   23.0145 O.2         1 PRO      -0.3907
      5 CB         -7.8206   28.1497   22.0351 C.3         1 PRO       0.0127
      6 CG         -9.1236   28.2434   22.8532 C.3         1 PRO      -0.0053
      7 CD         -8.9492   27.2454   24.0171 C.3         1 PRO      -0.0313
      8 N          -5.1636   25.8000   21.6048 N.am        1 PRO      -0.2592
      9 CA         -3.7519   25.5646   21.4193 C.3         1 PRO       0.1422
     10 C          -3.2708   26.3085   20.2510 C.2         1 PRO       0.2060
     11 O          -3.4572   25.8122   19.1402 O.2         1 PRO      -0.3942
     12 CB         -3.4681   24.0224   21.2902 C.3         1 PRO       0.0427
     13 CG         -2.3212   23.5241   22.0831 C.2         1 PRO       0.0561
     14 ND1        -1.2285   24.2124   22.4496 N.pl3       1 PRO      -0.2623
     15 CD2        -2.1469   22.2341   22.5817 C.2         1 PRO      -0.0276
     16 CE1        -0.4307   23.3997   23.1603 C.2         1 PRO       0.0875
     17 NE2        -0.9818   22.1778   23.2467 N.2         1 PRO      -0.3437
     18 N          -2.6468   27.4810   20.3757 N.am        1 PRO      -0.2636
     19 CA         -2.1269   28.3068   19.3136 C.3         1 PRO       0.1312
     20 C          -0.6716   28.1687   19.2299 C.2         1 PRO       0.2040
     21 O           0.0202   28.6616   20.1181 O.2         1 PRO      -0.3944
     22 CB         -2.6107   29.7945   19.4056 C.3         1 PRO      -0.0101
     23 CG         -2.5457   30.6754   20.7007 C.3         1 PRO      -0.0425
     24 CD1        -3.6926   30.3995   21.7130 C.3         1 PRO      -0.0625
     25 CD2        -1.1680   30.7165   21.4160 C.3         1 PRO      -0.0625
     26 N          -0.1310   27.5382   18.1824 N.am        1 PRO      -0.2616
     27 CA          1.2721   27.4286   17.8795 C.3         1 PRO       0.1538
     28 C           1.6213   28.3581   16.8049 C.2         1 PRO       0.2045
     29 O           2.2659   27.9669   15.8357 O.2         1 PRO      -0.3944
     30 CB          1.5966   25.9331   17.6078 C.3         1 PRO       0.0843
     31 OG          1.0545   25.4696   16.3743 O.3         1 PRO      -0.3903
     32 N           1.3502   29.6491   16.9477 N.am        1 PRO      -0.2748
     33 C1          1.8976   30.7246   16.1524 C.3         1 PRO       0.0911
     34 C2          1.2735   32.0873   16.5802 C.3         1 PRO       0.0089
     35 C3         -0.1611   32.2215   16.1932 C.ar        1 PRO      -0.0406
     36 C4         -1.1904   32.1889   17.1631 C.ar        1 PRO      -0.0603
     37 C5         -0.5200   32.4275   14.8357 C.ar        1 PRO      -0.0603
     38 C6         -2.5375   32.3461   16.7900 C.ar        1 PRO      -0.0686
     39 C7         -1.8693   32.5698   14.4615 C.ar        1 PRO      -0.0686
     40 C8         -2.8801   32.5306   15.4386 C.ar        1 PRO      -0.0687
     41 C9          3.4590   30.7482   16.2461 C.3         1 PRO      -0.0062
     42 N2          3.9554   30.3760   17.6019 N.4         1 PRO       0.2479
     43 C10         5.3092   29.7526   17.7027 C.3         1 PRO       0.0676
     44 C11         6.4306   30.7868   17.3687 C.3         1 PRO       0.0169
     45 C12         6.7364   31.8095   18.4942 C.3         1 PRO       0.0007
     46 SD          8.0725   32.9468   18.0342 S.3         1 PRO      -0.1638
     47 C13         7.0744   34.3328   17.4426 C.3         1 PRO      -0.0181
     48 C           5.4967   29.0825   18.9975 C.2         1 PRO       0.2268
     49 O           4.6756   29.2384   19.8941 O.2         1 PRO      -0.3907
     50 N           6.5167   28.2410   19.1627 N.am        1 PRO      -0.2613
     51 CA          6.8240   27.4456   20.3288 C.3         1 PRO       0.1283
     52 C           6.8890   28.2540   21.5561 C.2         1 PRO       0.2032
     53 O           7.9603   28.4599   22.1191 O.2         1 PRO      -0.3944
     54 CB          8.1292   26.6554   20.0331 C.3         1 PRO      -0.0244
     55 N           5.7545   28.7174   22.0656 N.am        1 PRO      -0.2677
     56 CA          5.4990   29.4476   23.2816 C.3         1 PRO       0.1056
     57 C           4.1566   30.0669   23.1225 C.2         1 PRO       0.0621
     58 O           3.1385   29.7455   23.9561 O.co2       1 PRO      -0.5664
     59 CB          6.5459   30.5006   23.7642 C.3         1 PRO       0.0372
     60 CG          6.9439   31.5165   22.7690 C.2         1 PRO       0.0555
     61 ND1         6.3493   32.6996   22.5639 N.pl3       1 PRO      -0.2623
     62 CD2         8.0742   31.5062   21.9535 C.2         1 PRO      -0.0276
     63 CE1         7.0705   33.3902   21.6671 C.2         1 PRO       0.0875
     64 NE2         8.1388   32.6703   21.2865 N.2         1 PRO      -0.3437
     65 OXT         3.8782   30.8640   22.0604 O.co2       1 PRO      -0.5664
     66 H1         -6.9564   27.2171   24.4867 H           1 PRO       0.2035
     67 H2         -7.5871   25.6989   24.1758 H           1 PRO       0.2035
     68 H3         -7.6602   25.9957   21.9192 H           1 PRO       0.1099
     69 H4         -8.0188   28.1561   20.9577 H           1 PRO       0.0347
     70 H5         -7.1755   29.0002   22.2819 H           1 PRO       0.0347
     71 H6         -9.9801   27.9604   22.2379 H           1 PRO       0.0320
     72 H7         -9.2733   29.2613   23.2222 H           1 PRO       0.0320
     73 H8         -9.0562   27.7348   24.9866 H           1 PRO       0.0814
     74 H9         -9.6814   26.4380   23.9428 H           1 PRO       0.0814
     75 H10        -5.7653   25.1786   21.1636 H           1 PRO       0.1886
     76 H11        -3.2493   25.9321   22.3214 H           1 PRO       0.0824
     77 H12        -3.2838   23.7443   20.2501 H           1 PRO       0.0491
     78 H13        -4.3474   23.4492   21.6039 H           1 PRO       0.0491
     79 H14        -1.0490   25.1446   22.2526 H           1 PRO       0.2386
     80 H15        -2.7899   21.4494   22.4570 H           1 PRO       0.0324
     81 H16         0.4672   23.6669   23.5703 H           1 PRO       0.1149
     82 H17        -2.5124   27.8105   21.2780 H           1 PRO       0.1883
     83 H18        -2.5392   27.9581   18.3572 H           1 PRO       0.0800
     84 H19        -3.6626   29.7981   19.0948 H           1 PRO       0.0315
     85 H20        -2.0779   30.3537   18.6268 H           1 PRO       0.0315
     86 H21        -2.7182   31.6980   20.3517 H           1 PRO       0.0298
     87 H22        -3.6737   31.1391   22.5222 H           1 PRO       0.0232
     88 H23        -3.6042   29.4007   22.1524 H           1 PRO       0.0232
     89 H24        -4.6610   30.4788   21.2075 H           1 PRO       0.0232
     90 H25        -0.3561   30.7735   20.6828 H           1 PRO       0.0232
     91 H26        -1.0237   29.8271   22.0296 H           1 PRO       0.0232
     92 H27        -1.1187   31.5895   22.0841 H           1 PRO       0.0232
     93 H28        -0.7367   27.1012   17.5557 H           1 PRO       0.1884
     94 H29         1.8910   27.7177   18.7366 H           1 PRO       0.0823
     95 H30         1.2045   25.3122   18.4182 H           1 PRO       0.0606
     96 H31         2.6801   25.8067   17.5812 H           1 PRO       0.0606
     97 H32         0.0795   25.5612   16.4700 H           1 PRO       0.2097
     98 H33         0.8259   29.9059   17.7242 H           1 PRO       0.1859
     99 H34         1.6364   30.5465   15.1041 H           1 PRO       0.0632
    100 H35         1.8140   32.9097   16.1053 H           1 PRO       0.0450
    101 H36         1.4062   32.2108   17.6584 H           1 PRO       0.0450
    102 H37        -0.9655   32.0626   18.1539 H           1 PRO       0.0557
    103 H38         0.1993   32.4862   14.1117 H           1 PRO       0.0557
    104 H39        -3.2676   32.3430   17.5056 H           1 PRO       0.0599
    105 H40        -2.1137   32.7169   13.4816 H           1 PRO       0.0599
    106 H41        -3.8580   32.6500   15.1699 H           1 PRO       0.0559
    107 H42         3.8460   31.7361   15.9783 H           1 PRO       0.0839
    108 H43         3.8443   30.0462   15.4981 H           1 PRO       0.0839
    109 H44         3.3004   29.6909   17.9700 H           1 PRO       0.2036
    110 H45         3.9022   31.2014   18.2089 H           1 PRO       0.2036
    111 H46         5.3758   28.9472   16.9603 H           1 PRO       0.1099
    112 H47         6.1405   31.3236   16.4608 H           1 PRO       0.0354
    113 H48         7.3551   30.2467   17.1332 H           1 PRO       0.0354
    114 H49         7.0732   31.2582   19.3746 H           1 PRO       0.0380
    115 H50         5.8400   32.3702   18.7729 H           1 PRO       0.0380
    116 H51         7.7410   35.0997   17.0477 H           1 PRO       0.0340
    117 H52         6.5002   34.7539   18.2680 H           1 PRO       0.0340
    118 H53         6.3969   34.0155   16.6514 H           1 PRO       0.0340
    119 H54         7.0930   28.0995   18.3921 H           1 PRO       0.1884
    120 H55         6.0398   26.6893   20.4517 H           1 PRO       0.0797
    121 H56         8.3600   25.9804   20.8588 H           1 PRO       0.0277
    122 H57         8.9765   27.3297   19.8823 H           1 PRO       0.0277
    123 H58         8.0120   26.0509   19.1299 H           1 PRO       0.0277
    124 H59         4.9517   28.4441   21.6014 H           1 PRO       0.1877
    125 H60         5.4244   28.7048   24.0796 H           1 PRO       0.0750
    126 H61         7.4365   29.9726   24.1111 H           1 PRO       0.0484
    127 H62         6.1429   31.0294   24.6366 H           1 PRO       0.0484
    128 H63         5.5383   33.0155   22.9979 H           1 PRO       0.2386
    129 H64         8.7493   30.7443   21.8726 H           1 PRO       0.0324
    130 H65         6.8531   34.3280   21.3281 H           1 PRO       0.1149
@<TRIPOS>BOND
     1     1     2   1
     2     1     7   1
     3     2     3   1
     4     2     5   1
     5     3     4   2
     6     3     8  am
     7     5     6   1
     8     6     7   1
     9     8     9   1
    10     9    10   1
    11     9    12   1
    12    10    11   2
    13    10    18  am
    14    12    13   1
    15    13    14   1
    16    13    15   2
    17    14    16   1
    18    15    17   1
    19    16    17   2
    20    18    19   1
    21    19    20   1
    22    19    22   1
    23    20    21   2
    24    20    26  am
    25    22    23   1
    26    23    24   1
    27    23    25   1
    28    26    27   1
    29    27    28   1
    30    27    30   1
    31    28    29   2
    32    28    32  am
    33    30    31   1
    34    32    33   1
    35    33    34   1
    36    33    41   1
    37    34    35   1
    38    35    36  ar
    39    35    37  ar
    40    36    38  ar
    41    37    39  ar
    42    38    40  ar
    43    39    40  ar
    44    41    42   1
    45    42    43   1
    46    43    44   1
    47    43    48   1
    48    44    45   1
    49    45    46   1
    50    46    47   1
    51    48    49   2
    52    48    50  am
    53    50    51   1
    54    51    52   1
    55    51    54   1
    56    52    53   2
    57    52    55  am
    58    55    56   1
    59    56    57   1
    60    56    59   1
    61    57    58  ar
    62    57    65  ar
    63    59    60   1
    64    60    61   1
    65    60    62   2
    66    61    63   1
    67    62    64   1
    68    63    64   2
    69     1    66   1
    70     1    67   1
    71     2    68   1
    72     5    69   1
    73     5    70   1
    74     6    71   1
    75     6    72   1
    76     7    73   1
    77     7    74   1
    78     8    75   1
    79     9    76   1
    80    12    77   1
    81    12    78   1
    82    14    79   1
    83    15    80   1
    84    16    81   1
    85    18    82   1
    86    19    83   1
    87    22    84   1
    88    22    85   1
    89    23    86   1
    90    24    87   1
    91    24    88   1
    92    24    89   1
    93    25    90   1
    94    25    91   1
    95    25    92   1
    96    26    93   1
    97    27    94   1
    98    30    95   1
    99    30    96   1
   100    31    97   1
   101    32    98   1
   102    33    99   1
   103    34   100   1
   104    34   101   1
   105    36   102   1
   106    37   103   1
   107    38   104   1
   108    39   105   1
   109    40   106   1
   110    41   107   1
   111    41   108   1
   112    42   109   1
   113    42   110   1
   114    43   111   1
   115    44   112   1
   116    44   113   1
   117    45   114   1
   118    45   115   1
   119    47   116   1
   120    47   117   1
   121    47   118   1
   122    50   119   1
   123    51   120   1
   124    54   121   1
   125    54   122   1
   126    54   123   1
   127    55   124   1
   128    56   125   1
   129    59   126   1
   130    59   127   1
   131    61   128   1
   132    62   129   1
   133    63   130   1
@<TRIPOS>SUBSTRUCTURE
     1  PRO      2

