@<TRIPOS>MOLECULE
3uri_ligand_050
   130   133
SMALL
GAST_HUCK
****
This file was generated by PARSER (from files_GN.cpp)

@<TRIPOS>ATOM
      1 N           2.8808   25.2365   19.3619 N.4         1 PRO       0.2461
      2 CA          2.9930   26.5573   18.7069 C.3         1 PRO       0.0670
      3 C           4.2266   27.2885   18.9792 C.2         1 PRO       0.2269
      4 O           4.9212   26.9734   19.9464 O.2         1 PRO      -0.3907
      5 CB          1.7245   27.2953   19.1918 C.3         1 PRO       0.0127
      6 CG          0.6592   26.1887   19.2998 C.3         1 PRO      -0.0053
      7 CD          1.4549   24.8656   19.3603 C.3         1 PRO      -0.0313
      8 N           4.5968   28.2477   18.1398 N.am        1 PRO      -0.2592
      9 CA          5.7082   29.1634   18.2452 C.3         1 PRO       0.1422
     10 C           5.3383   30.4125   17.5604 C.2         1 PRO       0.2060
     11 O           4.1455   30.6508   17.3939 O.2         1 PRO      -0.3942
     12 CB          6.9887   28.4436   17.7043 C.3         1 PRO       0.0427
     13 CG          7.7657   27.7979   18.7852 C.2         1 PRO       0.0561
     14 ND1         7.5583   26.5788   19.3047 N.pl3       1 PRO      -0.2623
     15 CD2         8.8023   28.3611   19.5287 C.2         1 PRO      -0.0276
     16 CE1         8.4265   26.3930   20.3116 C.2         1 PRO       0.0875
     17 NE2         9.1952   27.4832   20.4644 N.2         1 PRO      -0.3437
     18 N           6.2202   31.3974   17.4468 N.am        1 PRO      -0.2636
     19 CA          5.9705   32.7594   17.0696 C.3         1 PRO       0.1312
     20 C           5.3982   32.8657   15.7233 C.2         1 PRO       0.2040
     21 O           4.5769   32.0185   15.3652 O.2         1 PRO      -0.3944
     22 CB          7.2880   33.5834   17.2810 C.3         1 PRO      -0.0101
     23 CG          8.1348   33.3882   18.5849 C.3         1 PRO      -0.0425
     24 CD1         7.2900   33.0363   19.8459 C.3         1 PRO      -0.0625
     25 CD2         9.3238   32.3952   18.4219 C.3         1 PRO      -0.0625
     26 N           5.6962   33.8804   14.9086 N.am        1 PRO      -0.2616
     27 CA          5.2514   34.0932   13.5685 C.3         1 PRO       0.1538
     28 C           3.8604   34.5477   13.4893 C.2         1 PRO       0.2045
     29 O           3.4917   35.3499   14.3397 O.2         1 PRO      -0.3944
     30 CB          5.6514   32.8896   12.6705 C.3         1 PRO       0.0843
     31 OG          4.7805   31.7744   12.8170 O.3         1 PRO      -0.3903
     32 N           3.0540   34.1851   12.4981 N.am        1 PRO      -0.2748
     33 C1          1.7514   34.7304   12.2282 C.3         1 PRO       0.0911
     34 C2          1.7631   35.3887   10.8104 C.3         1 PRO       0.0089
     35 C3          0.8154   36.5329   10.7188 C.ar        1 PRO      -0.0406
     36 C4         -0.5624   36.3342   10.4464 C.ar        1 PRO      -0.0603
     37 C5          1.2763   37.8542   10.9444 C.ar        1 PRO      -0.0603
     38 C6         -1.4478   37.4261   10.3930 C.ar        1 PRO      -0.0686
     39 C7          0.3931   38.9456   10.8834 C.ar        1 PRO      -0.0686
     40 C8         -0.9730   38.7326   10.6114 C.ar        1 PRO      -0.0687
     41 C9          0.6849   33.6090   12.3374 C.3         1 PRO      -0.0062
     42 N2          0.4214   33.2432   13.7579 N.4         1 PRO       0.2479
     43 C10        -0.8180   32.4557   14.0097 C.3         1 PRO       0.0676
     44 C11        -0.8117   31.9014   15.4695 C.3         1 PRO       0.0169
     45 C12        -1.9803   30.9232   15.7612 C.3         1 PRO       0.0007
     46 SD         -2.0383   30.4449   17.5065 S.3         1 PRO      -0.1638
     47 C13        -3.3211   29.1839   17.3439 C.3         1 PRO      -0.0181
     48 C          -2.0005   33.2709   13.6904 C.2         1 PRO       0.2268
     49 O          -2.3803   33.2669   12.5266 O.2         1 PRO      -0.3907
     50 N          -2.5220   34.1014   14.5906 N.am        1 PRO      -0.2613
     51 CA         -3.5460   35.0938   14.3641 C.3         1 PRO       0.1283
     52 C          -2.9943   36.4229   14.6013 C.2         1 PRO       0.2032
     53 O          -3.0311   37.2568   13.7080 O.2         1 PRO      -0.3944
     54 CB         -4.7625   34.7993   15.2770 C.3         1 PRO      -0.0244
     55 N          -2.4636   36.7303   15.7834 N.am        1 PRO      -0.2677
     56 CA         -1.9039   37.9960   16.1879 C.3         1 PRO       0.1056
     57 C          -0.5257   38.1933   15.6680 C.2         1 PRO       0.0621
     58 O           0.2929   39.1328   16.2076 O.co2       1 PRO      -0.5664
     59 CB         -1.9712   38.0486   17.7442 C.3         1 PRO       0.0372
     60 CG         -1.5873   39.3467   18.3413 C.2         1 PRO       0.0555
     61 ND1        -2.1975   40.5253   18.1376 N.pl3       1 PRO      -0.2623
     62 CD2        -0.5544   39.5950   19.2408 C.2         1 PRO      -0.0276
     63 CE1        -1.5511   41.4654   18.8450 C.2         1 PRO       0.0875
     64 NE2        -0.5404   40.9047   19.5318 N.2         1 PRO      -0.3437
     65 OXT        -0.0719   37.5357   14.5708 O.co2       1 PRO      -0.5664
     66 H1          3.2050   25.3051   20.3336 H           1 PRO       0.2035
     67 H2          3.4329   24.5352   18.8579 H           1 PRO       0.2035
     68 H3          2.9140   26.3822   17.6237 H           1 PRO       0.1099
     69 H4          1.4274   28.0789   18.4889 H           1 PRO       0.0347
     70 H5          1.8939   27.7429   20.1787 H           1 PRO       0.0347
     71 H6          0.0100   26.2012   18.4205 H           1 PRO       0.0320
     72 H7          0.0458   26.3262   20.1972 H           1 PRO       0.0320
     73 H8          1.2186   24.2963   20.2638 H           1 PRO       0.0814
     74 H9          1.2417   24.2489   18.4824 H           1 PRO       0.0814
     75 H10         3.9969   28.3920   17.3871 H           1 PRO       0.1886
     76 H11         5.8786   29.4334   19.2989 H           1 PRO       0.0824
     77 H12         7.6573   29.1451   17.2088 H           1 PRO       0.0491
     78 H13         6.7294   27.6870   16.9543 H           1 PRO       0.0491
     79 H14         6.8973   25.9328   18.9957 H           1 PRO       0.2386
     80 H15         9.2009   29.2954   19.3967 H           1 PRO       0.0324
     81 H16         8.4831   25.5579   20.8957 H           1 PRO       0.1149
     82 H17         7.1428   31.1763   17.6329 H           1 PRO       0.1883
     83 H18         5.2271   33.1678   17.7611 H           1 PRO       0.0800
     84 H19         7.0018   34.6431   17.2435 H           1 PRO       0.0315
     85 H20         7.9458   33.4127   16.4191 H           1 PRO       0.0315
     86 H21         8.5992   34.3637   18.7680 H           1 PRO       0.0298
     87 H22         7.9155   33.1133   20.7408 H           1 PRO       0.0232
     88 H23         6.8875   32.0178   19.7672 H           1 PRO       0.0232
     89 H24         6.4587   33.7433   19.9383 H           1 PRO       0.0232
     90 H25         9.9113   32.6499   17.5312 H           1 PRO       0.0232
     91 H26         8.9693   31.3651   18.3407 H           1 PRO       0.0232
     92 H27         9.9838   32.4603   19.2937 H           1 PRO       0.0232
     93 H28         6.2888   34.5690   15.2541 H           1 PRO       0.1884
     94 H29         5.8450   34.9356   13.2075 H           1 PRO       0.0823
     95 H30         6.6550   32.5627   12.9259 H           1 PRO       0.0606
     96 H31         5.6508   33.1863   11.6176 H           1 PRO       0.0606
     97 H32         5.1921   31.0719   12.2807 H           1 PRO       0.2097
     98 H33         3.3966   33.5477   11.8437 H           1 PRO       0.1859
     99 H34         1.4893   35.5010   12.9666 H           1 PRO       0.0632
    100 H35         1.5243   34.6410   10.0471 H           1 PRO       0.0450
    101 H36         2.7642   35.7576   10.5694 H           1 PRO       0.0450
    102 H37        -0.9249   35.3917   10.2859 H           1 PRO       0.0557
    103 H38         2.2647   38.0242   11.1550 H           1 PRO       0.0557
    104 H39        -2.4404   37.2747   10.1942 H           1 PRO       0.0599
    105 H40         0.7425   39.8918   11.0439 H           1 PRO       0.0599
    106 H41        -1.6143   39.5251   10.5659 H           1 PRO       0.0559
    107 H42         1.0107   32.7162   11.7866 H           1 PRO       0.0839
    108 H43        -0.2418   33.9918   11.8923 H           1 PRO       0.0839
    109 H44         0.3580   34.1056   14.3070 H           1 PRO       0.2036
    110 H45         1.2205   32.6984   14.1031 H           1 PRO       0.2036
    111 H46        -0.7861   31.5767   13.3515 H           1 PRO       0.1099
    112 H47        -0.8426   32.7303   16.1817 H           1 PRO       0.0354
    113 H48         0.1304   31.3575   15.6368 H           1 PRO       0.0354
    114 H49        -1.8648   30.0225   15.1514 H           1 PRO       0.0380
    115 H50        -2.9258   31.4007   15.5015 H           1 PRO       0.0380
    116 H51        -3.5505   28.7749   18.3272 H           1 PRO       0.0340
    117 H52        -2.9686   28.3807   16.6959 H           1 PRO       0.0340
    118 H53        -4.2305   29.6184   16.9212 H           1 PRO       0.0340
    119 H54        -2.1789   34.0381   15.4995 H           1 PRO       0.1884
    120 H55        -3.9152   35.0418   13.3308 H           1 PRO       0.0797
    121 H56        -5.5427   35.5442   15.1135 H           1 PRO       0.0277
    122 H57        -4.4758   34.8153   16.3324 H           1 PRO       0.0277
    123 H58        -5.1758   33.8124   15.0530 H           1 PRO       0.0277
    124 H59        -2.4820   36.0333   16.4613 H           1 PRO       0.1877
    125 H60        -2.5418   38.7964   15.8038 H           1 PRO       0.0750
    126 H61        -1.3366   37.2606   18.1519 H           1 PRO       0.0484
    127 H62        -2.9999   37.8418   18.0641 H           1 PRO       0.0484
    128 H63        -2.9602   40.6836   17.5540 H           1 PRO       0.2386
    129 H64         0.0973   38.9040   19.6046 H           1 PRO       0.0324
    130 H65        -1.7902   42.4618   18.8600 H           1 PRO       0.1149
@<TRIPOS>BOND
     1     1     2   1
     2     1     7   1
     3     2     3   1
     4     2     5   1
     5     3     4   2
     6     3     8  am
     7     5     6   1
     8     6     7   1
     9     8     9   1
    10     9    10   1
    11     9    12   1
    12    10    11   2
    13    10    18  am
    14    12    13   1
    15    13    14   1
    16    13    15   2
    17    14    16   1
    18    15    17   1
    19    16    17   2
    20    18    19   1
    21    19    20   1
    22    19    22   1
    23    20    21   2
    24    20    26  am
    25    22    23   1
    26    23    24   1
    27    23    25   1
    28    26    27   1
    29    27    28   1
    30    27    30   1
    31    28    29   2
    32    28    32  am
    33    30    31   1
    34    32    33   1
    35    33    34   1
    36    33    41   1
    37    34    35   1
    38    35    36  ar
    39    35    37  ar
    40    36    38  ar
    41    37    39  ar
    42    38    40  ar
    43    39    40  ar
    44    41    42   1
    45    42    43   1
    46    43    44   1
    47    43    48   1
    48    44    45   1
    49    45    46   1
    50    46    47   1
    51    48    49   2
    52    48    50  am
    53    50    51   1
    54    51    52   1
    55    51    54   1
    56    52    53   2
    57    52    55  am
    58    55    56   1
    59    56    57   1
    60    56    59   1
    61    57    58  ar
    62    57    65  ar
    63    59    60   1
    64    60    61   1
    65    60    62   2
    66    61    63   1
    67    62    64   1
    68    63    64   2
    69     1    66   1
    70     1    67   1
    71     2    68   1
    72     5    69   1
    73     5    70   1
    74     6    71   1
    75     6    72   1
    76     7    73   1
    77     7    74   1
    78     8    75   1
    79     9    76   1
    80    12    77   1
    81    12    78   1
    82    14    79   1
    83    15    80   1
    84    16    81   1
    85    18    82   1
    86    19    83   1
    87    22    84   1
    88    22    85   1
    89    23    86   1
    90    24    87   1
    91    24    88   1
    92    24    89   1
    93    25    90   1
    94    25    91   1
    95    25    92   1
    96    26    93   1
    97    27    94   1
    98    30    95   1
    99    30    96   1
   100    31    97   1
   101    32    98   1
   102    33    99   1
   103    34   100   1
   104    34   101   1
   105    36   102   1
   106    37   103   1
   107    38   104   1
   108    39   105   1
   109    40   106   1
   110    41   107   1
   111    41   108   1
   112    42   109   1
   113    42   110   1
   114    43   111   1
   115    44   112   1
   116    44   113   1
   117    45   114   1
   118    45   115   1
   119    47   116   1
   120    47   117   1
   121    47   118   1
   122    50   119   1
   123    51   120   1
   124    54   121   1
   125    54   122   1
   126    54   123   1
   127    55   124   1
   128    56   125   1
   129    59   126   1
   130    59   127   1
   131    61   128   1
   132    62   129   1
   133    63   130   1
@<TRIPOS>SUBSTRUCTURE
     1  PRO      2

