@<TRIPOS>MOLECULE
3uri_ligand_028
   130   133
SMALL
GAST_HUCK
****
This file was generated by PARSER (from files_GN.cpp)

@<TRIPOS>ATOM
      1 N          -7.5177   26.8086   18.0205 N.4         1 PRO       0.2461
      2 CA         -6.8374   25.5404   18.3475 C.3         1 PRO       0.0670
      3 C          -5.4189   25.7343   18.6244 C.2         1 PRO       0.2269
      4 O          -4.6964   26.1680   17.7283 O.2         1 PRO      -0.3907
      5 CB         -7.1377   24.6472   17.1211 C.3         1 PRO       0.0127
      6 CG         -8.5789   25.0334   16.7505 C.3         1 PRO      -0.0053
      7 CD         -8.7358   26.4854   17.2548 C.3         1 PRO      -0.0313
      8 N          -4.9429   25.4599   19.8441 N.am        1 PRO      -0.2592
      9 CA         -3.6134   25.5508   20.4091 C.3         1 PRO       0.1422
     10 C          -2.7590   26.6525   19.9480 C.2         1 PRO       0.2060
     11 O          -2.7039   26.8850   18.7382 O.2         1 PRO      -0.3942
     12 CB         -2.8959   24.1606   20.3199 C.3         1 PRO       0.0427
     13 CG         -1.4708   24.1835   20.7181 C.2         1 PRO       0.0561
     14 ND1        -0.4375   23.7753   19.9730 N.pl3       1 PRO      -0.2623
     15 CD2        -0.9220   24.6518   21.9187 C.2         1 PRO      -0.0276
     16 CE1         0.6891   23.9532   20.6737 C.2         1 PRO       0.0875
     17 NE2         0.4051   24.4934   21.8736 N.2         1 PRO      -0.3437
     18 N          -2.0274   27.3441   20.8095 N.am        1 PRO      -0.2636
     19 CA         -1.1357   28.4346   20.4979 C.3         1 PRO       0.1312
     20 C           0.1236   27.8982   19.9937 C.2         1 PRO       0.2040
     21 O           0.9373   27.4223   20.7969 O.2         1 PRO      -0.3944
     22 CB         -0.9173   29.3550   21.7484 C.3         1 PRO      -0.0101
     23 CG         -2.0926   30.2697   22.2301 C.3         1 PRO      -0.0425
     24 CD1        -2.1896   31.5959   21.4285 C.3         1 PRO      -0.0625
     25 CD2        -3.4774   29.5636   22.2934 C.3         1 PRO      -0.0625
     26 N           0.4019   27.9182   18.6937 N.am        1 PRO      -0.2616
     27 CA          1.6339   27.5120   18.0742 C.3         1 PRO       0.1538
     28 C           1.9662   28.4449   16.9984 C.2         1 PRO       0.2045
     29 O           2.4013   28.0246   15.9269 O.2         1 PRO      -0.3944
     30 CB          1.5362   26.0089   17.6737 C.3         1 PRO       0.0843
     31 OG          1.0555   25.7991   16.3468 O.3         1 PRO      -0.3903
     32 N           1.8613   29.7469   17.2135 N.am        1 PRO      -0.2748
     33 C1          2.1531   30.8039   16.2791 C.3         1 PRO       0.0911
     34 C2          1.4538   32.1208   16.7490 C.3         1 PRO       0.0089
     35 C3         -0.0017   32.1644   16.4277 C.ar        1 PRO      -0.0406
     36 C4         -0.9845   31.8747   17.4034 C.ar        1 PRO      -0.0603
     37 C5         -0.4261   32.5174   15.1243 C.ar        1 PRO      -0.0603
     38 C6         -2.3569   31.9400   17.0812 C.ar        1 PRO      -0.0686
     39 C7         -1.7948   32.5775   14.8015 C.ar        1 PRO      -0.0686
     40 C8         -2.7588   32.2913   15.7803 C.ar        1 PRO      -0.0687
     41 C9          3.6894   30.9744   16.0873 C.3         1 PRO      -0.0062
     42 N2          4.4367   30.9317   17.3681 N.4         1 PRO       0.2479
     43 C10         5.8496   31.4358   17.3690 C.3         1 PRO       0.0676
     44 C11         5.8828   32.7695   18.1900 C.3         1 PRO       0.0169
     45 C12         5.9212   32.6451   19.7426 C.3         1 PRO       0.0007
     46 SD          7.6062   32.7096   20.4116 S.3         1 PRO      -0.1638
     47 C13         7.2215   33.4509   22.0213 C.3         1 PRO      -0.0181
     48 C           6.8077   30.4214   17.8080 C.2         1 PRO       0.2268
     49 O           6.4781   29.2375   17.7932 O.2         1 PRO      -0.3907
     50 N           8.0542   30.7563   18.1341 N.am        1 PRO      -0.2613
     51 CA          9.0985   29.9210   18.6685 C.3         1 PRO       0.1283
     52 C           8.7478   29.4072   20.0078 C.2         1 PRO       0.2032
     53 O           9.3679   29.7572   21.0036 O.2         1 PRO      -0.3944
     54 CB         10.4243   30.7363   18.6676 C.3         1 PRO      -0.0244
     55 N           7.7624   28.5369   20.1389 N.am        1 PRO      -0.2677
     56 CA          7.2242   27.9994   21.3664 C.3         1 PRO       0.1056
     57 C           6.1065   27.1032   20.9840 C.2         1 PRO       0.0621
     58 O           6.2204   25.7621   21.1226 O.co2       1 PRO      -0.5664
     59 CB          6.7682   29.1382   22.3310 C.3         1 PRO       0.0372
     60 CG          6.1624   28.6612   23.5956 C.2         1 PRO       0.0555
     61 ND1         6.6555   28.8648   24.8240 N.pl3       1 PRO      -0.2623
     62 CD2         4.9737   27.9565   23.7635 C.2         1 PRO      -0.0276
     63 CE1         5.8243   28.3046   25.7135 C.2         1 PRO       0.0875
     64 NE2         4.7833   27.7437   25.0782 N.2         1 PRO      -0.3437
     65 OXT         4.9405   27.6111   20.5213 O.co2       1 PRO      -0.5664
     66 H1         -6.9005   27.3724   17.4301 H           1 PRO       0.2035
     67 H2         -7.7472   27.3255   18.8742 H           1 PRO       0.2035
     68 H3         -7.3494   25.1081   19.2217 H           1 PRO       0.1099
     69 H4         -7.0445   23.5815   17.3614 H           1 PRO       0.0347
     70 H5         -6.4749   24.8894   16.2838 H           1 PRO       0.0347
     71 H6         -9.2842   24.3751   17.2670 H           1 PRO       0.0320
     72 H7         -8.7445   24.9624   15.6731 H           1 PRO       0.0320
     73 H8         -8.8328   27.1838   16.4210 H           1 PRO       0.0814
     74 H9         -9.6090   26.5760   17.9049 H           1 PRO       0.0814
     75 H10        -5.6060   25.0785   20.4549 H           1 PRO       0.1886
     76 H11        -3.8146   25.7154   21.4786 H           1 PRO       0.0824
     77 H12        -2.9836   23.7700   19.2983 H           1 PRO       0.0491
     78 H13        -3.4150   23.4669   20.9923 H           1 PRO       0.0491
     79 H14        -0.4959   23.4130   19.0733 H           1 PRO       0.2386
     80 H15        -1.4523   25.0427   22.7035 H           1 PRO       0.0324
     81 H16         1.6252   23.7267   20.3473 H           1 PRO       0.1149
     82 H17        -2.0796   27.0909   21.7510 H           1 PRO       0.1883
     83 H18        -1.5997   29.0534   19.7195 H           1 PRO       0.0800
     84 H19        -0.0684   30.0188   21.5523 H           1 PRO       0.0315
     85 H20        -0.6267   28.7237   22.5957 H           1 PRO       0.0315
     86 H21        -1.8546   30.5589   23.2627 H           1 PRO       0.0298
     87 H22        -2.9290   32.2649   21.8817 H           1 PRO       0.0232
     88 H23        -2.4881   31.3992   20.3946 H           1 PRO       0.0232
     89 H24        -1.2238   32.1112   21.4260 H           1 PRO       0.0232
     90 H25        -3.4011   28.6234   22.8453 H           1 PRO       0.0232
     91 H26        -3.8569   29.3579   21.2874 H           1 PRO       0.0232
     92 H27        -4.2009   30.2040   22.8080 H           1 PRO       0.0232
     93 H28        -0.3006   28.2416   18.0989 H           1 PRO       0.1884
     94 H29         2.4612   27.5896   18.7901 H           1 PRO       0.0823
     95 H30         0.8707   25.4825   18.3644 H           1 PRO       0.0606
     96 H31         2.5252   25.5508   17.7518 H           1 PRO       0.0606
     97 H32         0.0814   25.8848   16.4020 H           1 PRO       0.2097
     98 H33         1.4974   30.0185   18.0739 H           1 PRO       0.1859
     99 H34         1.7444   30.5329   15.3001 H           1 PRO       0.0632
    100 H35         1.9277   32.9847   16.2747 H           1 PRO       0.0450
    101 H36         1.6113   32.2426   17.8231 H           1 PRO       0.0450
    102 H37        -0.7093   31.6143   18.3535 H           1 PRO       0.0557
    103 H38         0.2628   32.7380   14.3999 H           1 PRO       0.0557
    104 H39        -3.0592   31.7284   17.7900 H           1 PRO       0.0599
    105 H40        -2.0869   32.8269   13.8536 H           1 PRO       0.0599
    106 H41        -3.7528   32.3377   15.5494 H           1 PRO       0.0559
    107 H42         3.8647   31.9350   15.5949 H           1 PRO       0.0839
    108 H43         4.0670   30.1900   15.4275 H           1 PRO       0.0839
    109 H44         4.4381   29.9641   17.7015 H           1 PRO       0.2036
    110 H45         3.9123   31.4717   18.0565 H           1 PRO       0.2036
    111 H46         6.1474   31.7117   16.3496 H           1 PRO       0.1099
    112 H47         4.9797   33.3367   17.9236 H           1 PRO       0.0354
    113 H48         6.7181   33.3915   17.8506 H           1 PRO       0.0354
    114 H49         5.4551   31.7123   20.0683 H           1 PRO       0.0380
    115 H50         5.3480   33.4724   20.1641 H           1 PRO       0.0380
    116 H51         8.1400   33.4965   22.6126 H           1 PRO       0.0340
    117 H52         6.4812   32.8441   22.5446 H           1 PRO       0.0340
    118 H53         6.8385   34.4631   21.8765 H           1 PRO       0.0340
    119 H54         8.2822   31.6928   18.0287 H           1 PRO       0.1884
    120 H55         9.2503   29.0726   17.9944 H           1 PRO       0.0797
    121 H56        11.2637   30.0853   18.9349 H           1 PRO       0.0277
    122 H57        10.3773   31.5684   19.3772 H           1 PRO       0.0277
    123 H58        10.6214   31.1579   17.6751 H           1 PRO       0.0277
    124 H59         7.3508   28.2158   19.3208 H           1 PRO       0.1877
    125 H60         7.9995   27.4033   21.8648 H           1 PRO       0.0750
    126 H61         6.0568   29.8061   21.8363 H           1 PRO       0.0484
    127 H62         7.6424   29.7396   22.6009 H           1 PRO       0.0484
    128 H63         7.4849   29.3223   25.0419 H           1 PRO       0.2386
    129 H64         4.3515   27.6487   23.0165 H           1 PRO       0.0324
    130 H65         5.9558   28.3066   26.7277 H           1 PRO       0.1149
@<TRIPOS>BOND
     1     1     2   1
     2     1     7   1
     3     2     3   1
     4     2     5   1
     5     3     4   2
     6     3     8  am
     7     5     6   1
     8     6     7   1
     9     8     9   1
    10     9    10   1
    11     9    12   1
    12    10    11   2
    13    10    18  am
    14    12    13   1
    15    13    14   1
    16    13    15   2
    17    14    16   1
    18    15    17   1
    19    16    17   2
    20    18    19   1
    21    19    20   1
    22    19    22   1
    23    20    21   2
    24    20    26  am
    25    22    23   1
    26    23    24   1
    27    23    25   1
    28    26    27   1
    29    27    28   1
    30    27    30   1
    31    28    29   2
    32    28    32  am
    33    30    31   1
    34    32    33   1
    35    33    34   1
    36    33    41   1
    37    34    35   1
    38    35    36  ar
    39    35    37  ar
    40    36    38  ar
    41    37    39  ar
    42    38    40  ar
    43    39    40  ar
    44    41    42   1
    45    42    43   1
    46    43    44   1
    47    43    48   1
    48    44    45   1
    49    45    46   1
    50    46    47   1
    51    48    49   2
    52    48    50  am
    53    50    51   1
    54    51    52   1
    55    51    54   1
    56    52    53   2
    57    52    55  am
    58    55    56   1
    59    56    57   1
    60    56    59   1
    61    57    58  ar
    62    57    65  ar
    63    59    60   1
    64    60    61   1
    65    60    62   2
    66    61    63   1
    67    62    64   1
    68    63    64   2
    69     1    66   1
    70     1    67   1
    71     2    68   1
    72     5    69   1
    73     5    70   1
    74     6    71   1
    75     6    72   1
    76     7    73   1
    77     7    74   1
    78     8    75   1
    79     9    76   1
    80    12    77   1
    81    12    78   1
    82    14    79   1
    83    15    80   1
    84    16    81   1
    85    18    82   1
    86    19    83   1
    87    22    84   1
    88    22    85   1
    89    23    86   1
    90    24    87   1
    91    24    88   1
    92    24    89   1
    93    25    90   1
    94    25    91   1
    95    25    92   1
    96    26    93   1
    97    27    94   1
    98    30    95   1
    99    30    96   1
   100    31    97   1
   101    32    98   1
   102    33    99   1
   103    34   100   1
   104    34   101   1
   105    36   102   1
   106    37   103   1
   107    38   104   1
   108    39   105   1
   109    40   106   1
   110    41   107   1
   111    41   108   1
   112    42   109   1
   113    42   110   1
   114    43   111   1
   115    44   112   1
   116    44   113   1
   117    45   114   1
   118    45   115   1
   119    47   116   1
   120    47   117   1
   121    47   118   1
   122    50   119   1
   123    51   120   1
   124    54   121   1
   125    54   122   1
   126    54   123   1
   127    55   124   1
   128    56   125   1
   129    59   126   1
   130    59   127   1
   131    61   128   1
   132    62   129   1
   133    63   130   1
@<TRIPOS>SUBSTRUCTURE
     1  PRO      2

