@<TRIPOS>MOLECULE
3uri_ligand_022
   130   133
SMALL
GAST_HUCK
****
This file was generated by PARSER (from files_GN.cpp)

@<TRIPOS>ATOM
      1 N          -7.7095   27.2281   23.4841 N.4         1 PRO       0.2461
      2 CA         -7.2760   27.3101   22.0787 C.3         1 PRO       0.0670
      3 C          -5.8428   27.1180   21.9344 C.2         1 PRO       0.2269
      4 O          -5.0833   27.9871   22.3508 O.2         1 PRO      -0.3907
      5 CB         -7.7782   28.7012   21.6333 C.3         1 PRO       0.0127
      6 CG         -9.1117   28.8664   22.3824 C.3         1 PRO      -0.0053
      7 CD         -9.0093   27.9110   23.5909 C.3         1 PRO      -0.0313
      8 N          -5.3667   26.0252   21.3468 N.am        1 PRO      -0.2592
      9 CA         -3.9869   25.7162   21.1238 C.3         1 PRO       0.1422
     10 C          -3.5014   26.4633   19.9632 C.2         1 PRO       0.2060
     11 O          -3.7128   26.0214   18.8365 O.2         1 PRO      -0.3942
     12 CB         -3.8019   24.1773   20.9577 C.3         1 PRO       0.0427
     13 CG         -2.3889   23.7666   20.8294 C.2         1 PRO       0.0561
     14 ND1        -1.6843   23.6330   19.6959 N.pl3       1 PRO      -0.2623
     15 CD2        -1.5298   23.4066   21.8648 C.2         1 PRO      -0.0276
     16 CE1        -0.4464   23.2232   20.0092 C.2         1 PRO       0.0875
     17 NE2        -0.3404   23.0735   21.3415 N.2         1 PRO      -0.3437
     18 N          -2.8406   27.5990   20.1311 N.am        1 PRO      -0.2636
     19 CA         -2.2622   28.4420   19.1116 C.3         1 PRO       0.1312
     20 C          -0.8154   28.2778   19.1417 C.2         1 PRO       0.2040
     21 O          -0.1698   28.8939   19.9826 O.2         1 PRO      -0.3944
     22 CB         -2.7263   29.9329   19.2431 C.3         1 PRO      -0.0101
     23 CG         -2.9087   30.5248   20.6930 C.3         1 PRO      -0.0425
     24 CD1        -2.0794   31.8220   20.9374 C.3         1 PRO      -0.0625
     25 CD2        -4.4022   30.8077   21.0195 C.3         1 PRO      -0.0625
     26 N          -0.2205   27.4596   18.2705 N.am        1 PRO      -0.2616
     27 CA          1.1806   27.1814   18.1510 C.3         1 PRO       0.1538
     28 C           1.7467   28.1329   17.1945 C.2         1 PRO       0.2045
     29 O           2.2512   27.7322   16.1486 O.2         1 PRO      -0.3944
     30 CB          1.3581   25.6728   17.8251 C.3         1 PRO       0.0843
     31 OG          0.9649   25.3391   16.4934 O.3         1 PRO      -0.3903
     32 N           1.8159   29.4058   17.5610 N.am        1 PRO      -0.2748
     33 C1          2.5437   30.4677   16.9101 C.3         1 PRO       0.0911
     34 C2          1.7316   31.8026   17.0270 C.3         1 PRO       0.0089
     35 C3          0.6796   31.9474   15.9783 C.ar        1 PRO      -0.0406
     36 C4         -0.6827   32.1292   16.3143 C.ar        1 PRO      -0.0603
     37 C5          1.0471   31.9470   14.6134 C.ar        1 PRO      -0.0603
     38 C6         -1.6546   32.2835   15.3110 C.ar        1 PRO      -0.0686
     39 C7          0.0796   32.1032   13.6051 C.ar        1 PRO      -0.0686
     40 C8         -1.2777   32.2818   13.9566 C.ar        1 PRO      -0.0687
     41 C9          3.9396   30.5645   17.6022 C.3         1 PRO      -0.0062
     42 N2          4.8015   29.4596   17.1272 N.4         1 PRO       0.2479
     43 C10         6.0795   29.1244   17.8067 C.3         1 PRO       0.0676
     44 C11         7.2269   30.1884   17.7365 C.3         1 PRO       0.0169
     45 C12         6.9337   31.6280   18.2412 C.3         1 PRO       0.0007
     46 SD          8.2474   32.3949   19.2336 S.3         1 PRO      -0.1638
     47 C13         9.7069   31.9980   18.2313 C.3         1 PRO      -0.0181
     48 C           5.8501   28.5206   19.1179 C.2         1 PRO       0.2268
     49 O           5.9361   29.1972   20.1330 O.2         1 PRO      -0.3907
     50 N           5.5914   27.2172   19.2004 N.am        1 PRO      -0.2613
     51 CA          5.5749   26.4213   20.3971 C.3         1 PRO       0.1283
     52 C           6.9347   26.2100   20.8932 C.2         1 PRO       0.2032
     53 O           7.8332   25.9796   20.0940 O.2         1 PRO      -0.3944
     54 CB          4.8731   25.0719   20.1035 C.3         1 PRO      -0.0244
     55 N           7.1859   26.2729   22.1966 N.am        1 PRO      -0.2677
     56 CA          8.4727   26.1663   22.8340 C.3         1 PRO       0.1056
     57 C           8.3391   25.8907   24.2836 C.2         1 PRO       0.0621
     58 O           7.1428   25.9082   24.9222 O.co2       1 PRO      -0.5664
     59 CB          9.3477   27.4371   22.5811 C.3         1 PRO       0.0372
     60 CG          8.5974   28.7123   22.6367 C.2         1 PRO       0.0555
     61 ND1         7.7442   29.1102   23.5935 N.pl3       1 PRO      -0.2623
     62 CD2         8.6259   29.7400   21.6984 C.2         1 PRO      -0.0276
     63 CE1         7.2501   30.3127   23.2528 C.2         1 PRO       0.0875
     64 NE2         7.7844   30.7153   22.0886 N.2         1 PRO      -0.3437
     65 OXT         9.4293   25.5708   25.0172 O.co2       1 PRO      -0.5664
     66 H1         -7.0351   27.7153   24.0809 H           1 PRO       0.2035
     67 H2         -7.7926   26.2541   23.7867 H           1 PRO       0.2035
     68 H3         -7.8225   26.5405   21.5173 H           1 PRO       0.1099
     69 H4         -7.9047   28.7505   20.5484 H           1 PRO       0.0347
     70 H5         -7.0842   29.4887   21.9476 H           1 PRO       0.0347
     71 H6         -9.9423   28.5745   21.7326 H           1 PRO       0.0320
     72 H7         -9.2554   29.9032   22.6955 H           1 PRO       0.0320
     73 H8         -9.0627   28.4599   24.5324 H           1 PRO       0.0814
     74 H9         -9.8168   27.1736   23.5635 H           1 PRO       0.0814
     75 H10        -6.0084   25.3529   21.0752 H           1 PRO       0.1886
     76 H11        -3.4280   26.0067   22.0208 H           1 PRO       0.0824
     77 H12        -4.3619   23.8243   20.0884 H           1 PRO       0.0491
     78 H13        -4.2126   23.6674   21.8305 H           1 PRO       0.0491
     79 H14        -2.0133   23.8002   18.7981 H           1 PRO       0.2386
     80 H15        -1.7653   23.3818   22.8588 H           1 PRO       0.0324
     81 H16         0.3020   23.0418   19.3367 H           1 PRO       0.1149
     82 H17        -2.6874   27.8900   21.0471 H           1 PRO       0.1883
     83 H18        -2.6194   28.1206   18.1270 H           1 PRO       0.0800
     84 H19        -3.6757   30.0139   18.7030 H           1 PRO       0.0315
     85 H20        -2.0218   30.5519   18.6830 H           1 PRO       0.0315
     86 H21        -2.5574   29.7999   21.4330 H           1 PRO       0.0298
     87 H22        -2.2094   32.1737   21.9663 H           1 PRO       0.0232
     88 H23        -2.4008   32.6170   20.2588 H           1 PRO       0.0232
     89 H24        -1.0181   31.6271   20.7799 H           1 PRO       0.0232
     90 H25        -4.9959   29.8997   20.8860 H           1 PRO       0.0232
     91 H26        -4.7990   31.5908   20.3630 H           1 PRO       0.0232
     92 H27        -4.5160   31.1379   22.0570 H           1 PRO       0.0232
     93 H28        -0.8066   26.9879   17.6550 H           1 PRO       0.1884
     94 H29         1.6952   27.3478   19.1087 H           1 PRO       0.0823
     95 H30         0.7816   25.0669   18.5314 H           1 PRO       0.0606
     96 H31         2.4091   25.4105   17.9367 H           1 PRO       0.0606
     97 H32        -0.0047   25.4708   16.4745 H           1 PRO       0.2097
     98 H33         1.4540   29.6184   18.4455 H           1 PRO       0.1859
     99 H34         2.6984   30.2626   15.8352 H           1 PRO       0.0632
    100 H35         2.4086   32.6581   16.9310 H           1 PRO       0.0450
    101 H36         1.2928   31.8619   18.0264 H           1 PRO       0.0450
    102 H37        -0.9663   32.1349   17.2955 H           1 PRO       0.0557
    103 H38         2.0282   31.8328   14.3361 H           1 PRO       0.0557
    104 H39        -2.6349   32.4107   15.5714 H           1 PRO       0.0599
    105 H40         0.3459   32.1110   12.6200 H           1 PRO       0.0599
    106 H41        -1.9849   32.4069   13.2315 H           1 PRO       0.0559
    107 H42         3.8172   30.5376   18.6938 H           1 PRO       0.0839
    108 H43         4.3957   31.5161   17.3246 H           1 PRO       0.0839
    109 H44         5.0140   29.6620   16.1482 H           1 PRO       0.2036
    110 H45         4.2316   28.6057   17.1511 H           1 PRO       0.2036
    111 H46         6.4649   28.3147   17.1793 H           1 PRO       0.1099
    112 H47         7.5386   30.2692   16.6922 H           1 PRO       0.0354
    113 H48         8.0771   29.7856   18.2913 H           1 PRO       0.0354
    114 H49         6.0379   31.6291   18.8661 H           1 PRO       0.0380
    115 H50         6.7520   32.2854   17.3902 H           1 PRO       0.0380
    116 H51        10.5883   32.4403   18.7099 H           1 PRO       0.0340
    117 H52         9.6139   32.4022   17.2144 H           1 PRO       0.0340
    118 H53         9.8404   30.9106   18.1898 H           1 PRO       0.0340
    119 H54         5.4611   26.7331   18.3655 H           1 PRO       0.1884
    120 H55         4.9661   26.9328   21.1508 H           1 PRO       0.0797
    121 H56         4.8507   24.4504   21.0040 H           1 PRO       0.0277
    122 H57         5.3870   24.5281   19.3045 H           1 PRO       0.0277
    123 H58         3.8416   25.2518   19.7901 H           1 PRO       0.0277
    124 H59         6.4248   26.4153   22.7808 H           1 PRO       0.1877
    125 H60         8.9998   25.3016   22.4172 H           1 PRO       0.0750
    126 H61         9.8113   27.3496   21.5959 H           1 PRO       0.0484
    127 H62        10.1602   27.4911   23.3104 H           1 PRO       0.0484
    128 H63         7.5085   28.6121   24.3938 H           1 PRO       0.2386
    129 H64         9.1899   29.7550   20.8482 H           1 PRO       0.0324
    130 H65         6.5702   30.8448   23.8038 H           1 PRO       0.1149
@<TRIPOS>BOND
     1     1     2   1
     2     1     7   1
     3     2     3   1
     4     2     5   1
     5     3     4   2
     6     3     8  am
     7     5     6   1
     8     6     7   1
     9     8     9   1
    10     9    10   1
    11     9    12   1
    12    10    11   2
    13    10    18  am
    14    12    13   1
    15    13    14   1
    16    13    15   2
    17    14    16   1
    18    15    17   1
    19    16    17   2
    20    18    19   1
    21    19    20   1
    22    19    22   1
    23    20    21   2
    24    20    26  am
    25    22    23   1
    26    23    24   1
    27    23    25   1
    28    26    27   1
    29    27    28   1
    30    27    30   1
    31    28    29   2
    32    28    32  am
    33    30    31   1
    34    32    33   1
    35    33    34   1
    36    33    41   1
    37    34    35   1
    38    35    36  ar
    39    35    37  ar
    40    36    38  ar
    41    37    39  ar
    42    38    40  ar
    43    39    40  ar
    44    41    42   1
    45    42    43   1
    46    43    44   1
    47    43    48   1
    48    44    45   1
    49    45    46   1
    50    46    47   1
    51    48    49   2
    52    48    50  am
    53    50    51   1
    54    51    52   1
    55    51    54   1
    56    52    53   2
    57    52    55  am
    58    55    56   1
    59    56    57   1
    60    56    59   1
    61    57    58  ar
    62    57    65  ar
    63    59    60   1
    64    60    61   1
    65    60    62   2
    66    61    63   1
    67    62    64   1
    68    63    64   2
    69     1    66   1
    70     1    67   1
    71     2    68   1
    72     5    69   1
    73     5    70   1
    74     6    71   1
    75     6    72   1
    76     7    73   1
    77     7    74   1
    78     8    75   1
    79     9    76   1
    80    12    77   1
    81    12    78   1
    82    14    79   1
    83    15    80   1
    84    16    81   1
    85    18    82   1
    86    19    83   1
    87    22    84   1
    88    22    85   1
    89    23    86   1
    90    24    87   1
    91    24    88   1
    92    24    89   1
    93    25    90   1
    94    25    91   1
    95    25    92   1
    96    26    93   1
    97    27    94   1
    98    30    95   1
    99    30    96   1
   100    31    97   1
   101    32    98   1
   102    33    99   1
   103    34   100   1
   104    34   101   1
   105    36   102   1
   106    37   103   1
   107    38   104   1
   108    39   105   1
   109    40   106   1
   110    41   107   1
   111    41   108   1
   112    42   109   1
   113    42   110   1
   114    43   111   1
   115    44   112   1
   116    44   113   1
   117    45   114   1
   118    45   115   1
   119    47   116   1
   120    47   117   1
   121    47   118   1
   122    50   119   1
   123    51   120   1
   124    54   121   1
   125    54   122   1
   126    54   123   1
   127    55   124   1
   128    56   125   1
   129    59   126   1
   130    59   127   1
   131    61   128   1
   132    62   129   1
   133    63   130   1
@<TRIPOS>SUBSTRUCTURE
     1  PRO      2

