@<TRIPOS>MOLECULE
3uri_ligand_016
   130   133
SMALL
GAST_HUCK
****
This file was generated by PARSER (from files_GN.cpp)

@<TRIPOS>ATOM
      1 N           8.3464   29.2688   17.7998 N.4         1 PRO       0.2461
      2 CA          7.6148   27.9892   17.7127 C.3         1 PRO       0.0670
      3 C           6.3632   28.1361   16.9801 C.2         1 PRO       0.2269
      4 O           6.2515   27.6155   15.8768 O.2         1 PRO      -0.3907
      5 CB          7.4624   27.5068   19.1739 C.3         1 PRO       0.0127
      6 CG          8.7178   28.0529   19.8695 C.3         1 PRO      -0.0053
      7 CD          9.0874   29.3176   19.0700 C.3         1 PRO      -0.0313
      8 N           5.3830   28.8654   17.5033 N.am        1 PRO      -0.2592
      9 CA          4.1405   29.2468   16.8878 C.3         1 PRO       0.1422
     10 C           4.0899   30.7048   16.8014 C.2         1 PRO       0.2060
     11 O           3.0700   31.3266   17.0741 O.2         1 PRO      -0.3942
     12 CB          2.9515   28.5538   17.6217 C.3         1 PRO       0.0427
     13 CG          2.9146   28.7531   19.0888 C.2         1 PRO       0.0561
     14 ND1         2.8904   29.9285   19.7290 N.pl3       1 PRO      -0.2623
     15 CD2         2.8542   27.7758   20.0778 C.2         1 PRO      -0.0276
     16 CE1         2.8122   29.7015   21.0471 C.2         1 PRO       0.0875
     17 NE2         2.7875   28.3786   21.2762 N.2         1 PRO      -0.3437
     18 N           5.1391   31.3515   16.3191 N.am        1 PRO      -0.2636
     19 CA          5.2486   32.7602   16.0391 C.3         1 PRO       0.1312
     20 C           4.8130   33.0204   14.6666 C.2         1 PRO       0.2040
     21 O           4.2267   32.1378   14.0380 O.2         1 PRO      -0.3944
     22 CB          6.7132   33.2164   16.3344 C.3         1 PRO      -0.0101
     23 CG          7.2197   32.9976   17.7991 C.3         1 PRO      -0.0425
     24 CD1         8.7449   33.2726   17.8978 C.3         1 PRO      -0.0625
     25 CD2         6.4597   33.8554   18.8484 C.3         1 PRO      -0.0625
     26 N           4.8899   34.2430   14.1543 N.am        1 PRO      -0.2616
     27 CA          4.3678   34.6897   12.8895 C.3         1 PRO       0.1538
     28 C           2.9055   34.7070   12.9183 C.2         1 PRO       0.2045
     29 O           2.3908   35.4261   13.7752 O.2         1 PRO      -0.3944
     30 CB          5.0567   33.9584   11.6945 C.3         1 PRO       0.0843
     31 OG          5.3508   32.5969   11.9912 O.3         1 PRO      -0.3903
     32 N           2.1505   34.0203   12.0740 N.am        1 PRO      -0.2748
     33 C1          0.7125   34.0414   11.9795 C.3         1 PRO       0.0911
     34 C2          0.2961   34.7409   10.6483 C.3         1 PRO       0.0089
     35 C3          0.4960   36.2202   10.6914 C.ar        1 PRO      -0.0406
     36 C4         -0.6092   37.1066   10.7342 C.ar        1 PRO      -0.0603
     37 C5          1.7972   36.7821   10.7267 C.ar        1 PRO      -0.0603
     38 C6         -0.4211   38.4968   10.8502 C.ar        1 PRO      -0.0686
     39 C7          1.9890   38.1692   10.8571 C.ar        1 PRO      -0.0686
     40 C8          0.8787   39.0290   10.9309 C.ar        1 PRO      -0.0687
     41 C9          0.2006   32.5783   12.1215 C.3         1 PRO      -0.0062
     42 N2          0.5964   32.0140   13.4420 N.4         1 PRO       0.2479
     43 C10        -0.4164   31.6472   14.4809 C.3         1 PRO       0.0676
     44 C11         0.3107   31.7214   15.8598 C.3         1 PRO       0.0169
     45 C12        -0.5336   31.5758   17.1556 C.3         1 PRO       0.0007
     46 SD         -1.2103   29.9029   17.3577 S.3         1 PRO      -0.1638
     47 C13        -0.6885   29.5887   19.0607 C.3         1 PRO      -0.0181
     48 C          -1.6553   32.4223   14.4644 C.2         1 PRO       0.2268
     49 O          -2.7147   31.8247   14.6448 O.2         1 PRO      -0.3907
     50 N          -1.6494   33.7356   14.3031 N.am        1 PRO      -0.2613
     51 CA         -2.8023   34.5980   14.2212 C.3         1 PRO       0.1283
     52 C          -2.3760   35.9862   14.3504 C.2         1 PRO       0.2032
     53 O          -2.1916   36.6615   13.3404 O.2         1 PRO      -0.3944
     54 CB         -3.8943   34.2427   15.2737 C.3         1 PRO      -0.0244
     55 N          -2.2106   36.5120   15.5544 N.am        1 PRO      -0.2677
     56 CA         -1.8613   37.8657   15.8815 C.3         1 PRO       0.1056
     57 C          -0.4984   38.2224   15.4044 C.2         1 PRO       0.0621
     58 O           0.0770   39.3841   15.7930 O.co2       1 PRO      -0.5664
     59 CB         -2.0318   38.0092   17.4249 C.3         1 PRO       0.0372
     60 CG         -1.6657   39.3311   17.9725 C.2         1 PRO       0.0555
     61 ND1        -2.1050   40.5204   17.5384 N.pl3       1 PRO      -0.2623
     62 CD2        -0.8135   39.5937   19.0412 C.2         1 PRO      -0.0276
     63 CE1        -1.5347   41.4790   18.2830 C.2         1 PRO       0.0875
     64 NE2        -0.7428   40.9224   19.2152 N.2         1 PRO      -0.3437
     65 OXT         0.1081   37.5550   14.3954 O.co2       1 PRO      -0.5664
     66 H1          7.6811   30.0431   17.7777 H           1 PRO       0.2035
     67 H2          9.0018   29.3672   17.0190 H           1 PRO       0.2035
     68 H3          8.2657   27.2828   17.1863 H           1 PRO       0.1099
     69 H4          7.4090   26.4163   19.2355 H           1 PRO       0.0347
     70 H5          6.5772   27.9311   19.6557 H           1 PRO       0.0347
     71 H6          9.5275   27.3203   19.8120 H           1 PRO       0.0320
     72 H7          8.5243   28.2854   20.9204 H           1 PRO       0.0320
     73 H8          8.7962   30.2194   19.6149 H           1 PRO       0.0814
     74 H9         10.1610   29.3549   18.8742 H           1 PRO       0.0814
     75 H10         5.5336   29.2206   18.3922 H           1 PRO       0.1886
     76 H11         4.1029   28.8889   15.8523 H           1 PRO       0.0824
     77 H12         2.9991   27.4797   17.4123 H           1 PRO       0.0491
     78 H13         2.0097   28.9148   17.2033 H           1 PRO       0.0491
     79 H14         2.9188   30.8031   19.3166 H           1 PRO       0.2386
     80 H15         2.8448   26.7662   19.9274 H           1 PRO       0.0324
     81 H16         2.7717   30.4290   21.7612 H           1 PRO       0.1149
     82 H17         5.8709   30.7974   16.0105 H           1 PRO       0.1883
     83 H18         4.5777   33.3426   16.6802 H           1 PRO       0.0800
     84 H19         6.8121   34.2791   16.1026 H           1 PRO       0.0315
     85 H20         7.3693   32.6717   15.6492 H           1 PRO       0.0315
     86 H21         7.0666   31.9489   18.0636 H           1 PRO       0.0298
     87 H22         9.1085   33.0406   18.9017 H           1 PRO       0.0232
     88 H23         8.9611   34.3223   17.6836 H           1 PRO       0.0232
     89 H24         9.2967   32.6502   17.1897 H           1 PRO       0.0232
     90 H25         5.4116   33.5609   18.9025 H           1 PRO       0.0232
     91 H26         6.5139   34.9165   18.5942 H           1 PRO       0.0232
     92 H27         6.8932   33.7136   19.8416 H           1 PRO       0.0232
     93 H28         5.3065   34.9235   14.7112 H           1 PRO       0.1884
     94 H29         4.6710   35.7365   12.7952 H           1 PRO       0.0823
     95 H30         5.9966   34.4698   11.4589 H           1 PRO       0.0606
     96 H31         4.4221   33.9952   10.8071 H           1 PRO       0.0606
     97 H32         6.1813   32.4170   11.4808 H           1 PRO       0.2097
     98 H33         2.6004   33.4422   11.4369 H           1 PRO       0.1859
     99 H34         0.2567   34.6115   12.7994 H           1 PRO       0.0632
    100 H35        -0.7564   34.5183   10.4545 H           1 PRO       0.0450
    101 H36         0.8599   34.3258    9.8101 H           1 PRO       0.0450
    102 H37        -1.5645   36.7445   10.6913 H           1 PRO       0.0557
    103 H38         2.6210   36.1821   10.6525 H           1 PRO       0.0557
    104 H39        -1.2293   39.1237   10.8838 H           1 PRO       0.0599
    105 H40         2.9362   38.5555   10.8985 H           1 PRO       0.0599
    106 H41         1.0167   40.0358   11.0311 H           1 PRO       0.0559
    107 H42         0.6401   31.9558   11.3364 H           1 PRO       0.0839
    108 H43        -0.8806   32.5462   11.9832 H           1 PRO       0.0839
    109 H44         1.2302   32.6901   13.8694 H           1 PRO       0.2036
    110 H45         1.1554   31.1696   13.2599 H           1 PRO       0.2036
    111 H46        -0.6515   30.5908   14.3041 H           1 PRO       0.1099
    112 H47         0.8248   32.6848   15.9257 H           1 PRO       0.0354
    113 H48         1.0854   30.9496   15.8670 H           1 PRO       0.0354
    114 H49        -1.3616   32.2861   17.1572 H           1 PRO       0.0380
    115 H50         0.1095   31.8385   18.0020 H           1 PRO       0.0380
    116 H51        -0.9540   28.5674   19.3340 H           1 PRO       0.0340
    117 H52        -1.1798   30.2814   19.7448 H           1 PRO       0.0340
    118 H53         0.3920   29.7052   19.1413 H           1 PRO       0.0340
    119 H54        -0.7814   34.1570   14.1876 H           1 PRO       0.1884
    120 H55        -3.2412   34.4579   13.2272 H           1 PRO       0.0797
    121 H56        -4.6988   34.9849   15.2582 H           1 PRO       0.0277
    122 H57        -3.4716   34.2106   16.2814 H           1 PRO       0.0277
    123 H58        -4.3341   33.2666   15.0576 H           1 PRO       0.0277
    124 H59        -2.4199   35.9308   16.3026 H           1 PRO       0.1877
    125 H60        -2.5763   38.5379   15.3993 H           1 PRO       0.0750
    126 H61        -1.4409   37.2357   17.9227 H           1 PRO       0.0484
    127 H62        -3.0811   37.8372   17.6832 H           1 PRO       0.0484
    128 H63        -2.7259   40.6650   16.8065 H           1 PRO       0.2386
    129 H64        -0.3262   38.8966   19.6060 H           1 PRO       0.0324
    130 H65        -1.6843   42.4806   18.1648 H           1 PRO       0.1149
@<TRIPOS>BOND
     1     1     2   1
     2     1     7   1
     3     2     3   1
     4     2     5   1
     5     3     4   2
     6     3     8  am
     7     5     6   1
     8     6     7   1
     9     8     9   1
    10     9    10   1
    11     9    12   1
    12    10    11   2
    13    10    18  am
    14    12    13   1
    15    13    14   1
    16    13    15   2
    17    14    16   1
    18    15    17   1
    19    16    17   2
    20    18    19   1
    21    19    20   1
    22    19    22   1
    23    20    21   2
    24    20    26  am
    25    22    23   1
    26    23    24   1
    27    23    25   1
    28    26    27   1
    29    27    28   1
    30    27    30   1
    31    28    29   2
    32    28    32  am
    33    30    31   1
    34    32    33   1
    35    33    34   1
    36    33    41   1
    37    34    35   1
    38    35    36  ar
    39    35    37  ar
    40    36    38  ar
    41    37    39  ar
    42    38    40  ar
    43    39    40  ar
    44    41    42   1
    45    42    43   1
    46    43    44   1
    47    43    48   1
    48    44    45   1
    49    45    46   1
    50    46    47   1
    51    48    49   2
    52    48    50  am
    53    50    51   1
    54    51    52   1
    55    51    54   1
    56    52    53   2
    57    52    55  am
    58    55    56   1
    59    56    57   1
    60    56    59   1
    61    57    58  ar
    62    57    65  ar
    63    59    60   1
    64    60    61   1
    65    60    62   2
    66    61    63   1
    67    62    64   1
    68    63    64   2
    69     1    66   1
    70     1    67   1
    71     2    68   1
    72     5    69   1
    73     5    70   1
    74     6    71   1
    75     6    72   1
    76     7    73   1
    77     7    74   1
    78     8    75   1
    79     9    76   1
    80    12    77   1
    81    12    78   1
    82    14    79   1
    83    15    80   1
    84    16    81   1
    85    18    82   1
    86    19    83   1
    87    22    84   1
    88    22    85   1
    89    23    86   1
    90    24    87   1
    91    24    88   1
    92    24    89   1
    93    25    90   1
    94    25    91   1
    95    25    92   1
    96    26    93   1
    97    27    94   1
    98    30    95   1
    99    30    96   1
   100    31    97   1
   101    32    98   1
   102    33    99   1
   103    34   100   1
   104    34   101   1
   105    36   102   1
   106    37   103   1
   107    38   104   1
   108    39   105   1
   109    40   106   1
   110    41   107   1
   111    41   108   1
   112    42   109   1
   113    42   110   1
   114    43   111   1
   115    44   112   1
   116    44   113   1
   117    45   114   1
   118    45   115   1
   119    47   116   1
   120    47   117   1
   121    47   118   1
   122    50   119   1
   123    51   120   1
   124    54   121   1
   125    54   122   1
   126    54   123   1
   127    55   124   1
   128    56   125   1
   129    59   126   1
   130    59   127   1
   131    61   128   1
   132    62   129   1
   133    63   130   1
@<TRIPOS>SUBSTRUCTURE
     1  PRO      2

