@<TRIPOS>MOLECULE
3uri_ligand_045
   130   133
SMALL
GAST_HUCK
****
This file was generated by PARSER (from files_GN.cpp)

@<TRIPOS>ATOM
      1 N           2.2870   30.1663   21.3976 N.4         1 PRO       0.2461
      2 CA          3.2038   29.0477   21.6721 C.3         1 PRO       0.0670
      3 C           3.9274   28.6393   20.4786 C.2         1 PRO       0.2269
      4 O           4.0894   27.4506   20.2302 O.2         1 PRO      -0.3907
      5 CB          2.2699   28.0048   22.3290 C.3         1 PRO       0.0127
      6 CG          1.2656   28.8472   23.1383 C.3         1 PRO      -0.0053
      7 CD          1.3470   30.2600   22.5237 C.3         1 PRO      -0.0313
      8 N           4.4599   29.5689   19.6906 N.am        1 PRO      -0.2592
      9 CA          5.1773   29.3582   18.4616 C.3         1 PRO       0.1422
     10 C           6.1229   30.4463   18.1927 C.2         1 PRO       0.2060
     11 O           7.2443   30.1465   17.7879 O.2         1 PRO      -0.3942
     12 CB          4.2301   29.1147   17.2396 C.3         1 PRO       0.0427
     13 CG          3.5695   30.3246   16.7013 C.2         1 PRO       0.0561
     14 ND1         2.9450   31.2929   17.3843 N.pl3       1 PRO      -0.2623
     15 CD2         3.5690   30.7382   15.3737 C.2         1 PRO      -0.0276
     16 CE1         2.5737   32.2576   16.5281 C.2         1 PRO       0.0875
     17 NE2         2.9634   31.9311   15.2853 N.2         1 PRO      -0.3437
     18 N           5.7868   31.7095   18.4055 N.am        1 PRO      -0.2636
     19 CA          6.6202   32.8810   18.3357 C.3         1 PRO       0.1312
     20 C           6.9039   33.2305   16.9445 C.2         1 PRO       0.2040
     21 O           8.0310   33.0887   16.4862 O.2         1 PRO      -0.3944
     22 CB          7.8585   32.7482   19.2839 C.3         1 PRO      -0.0101
     23 CG          7.5787   32.1011   20.6830 C.3         1 PRO      -0.0425
     24 CD1         8.8719   31.4816   21.2735 C.3         1 PRO      -0.0625
     25 CD2         6.9378   33.0852   21.7018 C.3         1 PRO      -0.0625
     26 N           5.9274   33.7106   16.1814 N.am        1 PRO      -0.2616
     27 CA          5.9922   34.0629   14.7809 C.3         1 PRO       0.1538
     28 C           4.7943   34.7832   14.3434 C.2         1 PRO       0.2045
     29 O           3.7669   34.7779   15.0125 O.2         1 PRO      -0.3944
     30 CB          6.2562   32.7788   13.9300 C.3         1 PRO       0.0843
     31 OG          5.8530   32.8767   12.5646 O.3         1 PRO      -0.3903
     32 N           4.8399   35.4781   13.2111 N.am        1 PRO      -0.2748
     33 C1          3.7754   36.2001   12.5662 C.3         1 PRO       0.0911
     34 C2          4.3525   37.5689   12.0861 C.3         1 PRO       0.0089
     35 C3          3.3340   38.4963   11.5174 C.ar        1 PRO      -0.0406
     36 C4          3.2365   38.7180   10.1209 C.ar        1 PRO      -0.0603
     37 C5          2.4359   39.1829   12.3719 C.ar        1 PRO      -0.0603
     38 C6          2.2521   39.5730    9.5957 C.ar        1 PRO      -0.0686
     39 C7          1.4596   40.0489   11.8476 C.ar        1 PRO      -0.0686
     40 C8          1.3640   40.2408   10.4545 C.ar        1 PRO      -0.0687
     41 C9          3.2123   35.3074   11.4154 C.3         1 PRO      -0.0062
     42 N2          2.3750   34.1808   11.8878 N.4         1 PRO       0.2479
     43 C10         0.9183   34.4083   12.1090 C.3         1 PRO       0.0676
     44 C11         0.1101   34.8164   10.8161 C.3         1 PRO       0.0169
     45 C12        -0.3217   36.3085   10.7192 C.3         1 PRO       0.0007
     46 SD         -1.2951   36.9070   12.1283 S.3         1 PRO      -0.1638
     47 C13        -2.9617   36.5431   11.5233 C.3         1 PRO      -0.0181
     48 C           0.3931   33.1725   12.7093 C.2         1 PRO       0.2268
     49 O          -0.0547   32.3054   11.9653 O.2         1 PRO      -0.3907
     50 N           0.3831   33.0197   14.0284 N.am        1 PRO      -0.2613
     51 CA         -0.2807   32.0339   14.8410 C.3         1 PRO       0.1283
     52 C           0.2987   30.6902   14.8752 C.2         1 PRO       0.2032
     53 O           0.3298   30.0082   13.8495 O.2         1 PRO      -0.3944
     54 CB         -1.8011   31.9785   14.5326 C.3         1 PRO      -0.0244
     55 N           0.5123   30.1102   16.0561 N.am        1 PRO      -0.2677
     56 CA          0.9202   28.7556   16.2924 C.3         1 PRO       0.1056
     57 C           0.2131   27.7879   15.4215 C.2         1 PRO       0.0621
     58 O           0.7816   26.5760   15.2014 O.co2       1 PRO      -0.5664
     59 CB          0.8038   28.3947   17.7968 C.3         1 PRO       0.0372
     60 CG         -0.5347   28.4667   18.4267 C.2         1 PRO       0.0555
     61 ND1        -0.7194   28.4926   19.7569 N.pl3       1 PRO      -0.2623
     62 CD2        -1.8166   28.5350   17.8741 C.2         1 PRO      -0.0276
     63 CE1        -2.0308   28.5969   20.0136 C.2         1 PRO       0.0875
     64 NE2        -2.7213   28.6192   18.8610 N.2         1 PRO      -0.3437
     65 OXT        -0.7510   28.2297   14.5585 O.co2       1 PRO      -0.5664
     66 H1          1.7599   29.9737   20.5416 H           1 PRO       0.2035
     67 H2          2.8075   31.0384   21.2939 H           1 PRO       0.2035
     68 H3          3.9415   29.3767   22.4123 H           1 PRO       0.1099
     69 H4          2.8248   27.3152   22.9698 H           1 PRO       0.0347
     70 H5          1.7298   27.4307   21.5698 H           1 PRO       0.0347
     71 H6          1.5515   28.8739   24.1943 H           1 PRO       0.0320
     72 H7          0.2546   28.4352   23.0579 H           1 PRO       0.0320
     73 H8          0.3720   30.6022   22.1681 H           1 PRO       0.0814
     74 H9          1.7282   30.9776   23.2572 H           1 PRO       0.0814
     75 H10         4.3559   30.4864   19.9845 H           1 PRO       0.1886
     76 H11         5.7560   28.4375   18.6011 H           1 PRO       0.0824
     77 H12         3.4417   28.4098   17.5054 H           1 PRO       0.0491
     78 H13         4.8127   28.6417   16.4419 H           1 PRO       0.0491
     79 H14         2.8344   31.3453   18.3434 H           1 PRO       0.2386
     80 H15         3.9866   30.2335   14.5936 H           1 PRO       0.0324
     81 H16         2.0973   33.1215   16.7844 H           1 PRO       0.1149
     82 H17         4.8781   31.8646   18.7098 H           1 PRO       0.1883
     83 H18         6.0238   33.7039   18.7298 H           1 PRO       0.0800
     84 H19         8.2915   33.7390   19.4341 H           1 PRO       0.0315
     85 H20         8.6147   32.1503   18.7703 H           1 PRO       0.0315
     86 H21         6.8762   31.2714   20.5468 H           1 PRO       0.0298
     87 H22         8.6391   30.9474   22.1964 H           1 PRO       0.0232
     88 H23         9.6119   32.2555   21.4922 H           1 PRO       0.0232
     89 H24         9.3120   30.7662   20.5753 H           1 PRO       0.0232
     90 H25         5.9572   33.4139   21.3553 H           1 PRO       0.0232
     91 H26         7.5745   33.9618   21.8442 H           1 PRO       0.0232
     92 H27         6.8020   32.5993   22.6713 H           1 PRO       0.0232
     93 H28         5.0689   33.8355   16.6176 H           1 PRO       0.1884
     94 H29         6.8319   34.7539   14.6503 H           1 PRO       0.0823
     95 H30         5.7162   31.9420   14.3659 H           1 PRO       0.0606
     96 H31         7.3209   32.5377   13.9482 H           1 PRO       0.0606
     97 H32         5.8607   31.9578   12.2166 H           1 PRO       0.2097
     98 H33         5.6871   35.4553   12.7342 H           1 PRO       0.1859
     99 H34         2.9742   36.4226   13.2731 H           1 PRO       0.0632
    100 H35         5.1482   37.3822   11.3605 H           1 PRO       0.0450
    101 H36         4.8259   38.0747   12.9346 H           1 PRO       0.0450
    102 H37         3.8710   38.2408    9.4741 H           1 PRO       0.0557
    103 H38         2.4839   39.0482   13.3845 H           1 PRO       0.0557
    104 H39         2.1802   39.7124    8.5827 H           1 PRO       0.0599
    105 H40         0.8141   40.5329   12.4736 H           1 PRO       0.0599
    106 H41         0.6456   40.8601   10.0739 H           1 PRO       0.0559
    107 H42         4.0461   34.8712   10.8651 H           1 PRO       0.0839
    108 H43         2.6548   35.9029   10.6952 H           1 PRO       0.0839
    109 H44         2.7731   33.8596   12.7738 H           1 PRO       0.2036
    110 H45         2.4742   33.4123   11.2224 H           1 PRO       0.2036
    111 H46         0.8150   35.2106   12.8469 H           1 PRO       0.1099
    112 H47        -0.8010   34.2184   10.7222 H           1 PRO       0.0354
    113 H48         0.7180   34.5863    9.9398 H           1 PRO       0.0354
    114 H49        -0.8910   36.4605    9.7997 H           1 PRO       0.0380
    115 H50         0.5652   36.9316   10.6526 H           1 PRO       0.0380
    116 H51        -3.6868   36.9285   12.2419 H           1 PRO       0.0340
    117 H52        -3.1089   35.4665   11.4167 H           1 PRO       0.0340
    118 H53        -3.1278   37.0346   10.5620 H           1 PRO       0.0340
    119 H54         0.8142   33.7289   14.5277 H           1 PRO       0.1884
    120 H55        -0.2086   32.4474   15.8541 H           1 PRO       0.0797
    121 H56        -2.3098   31.3502   15.2749 H           1 PRO       0.0277
    122 H57        -1.9833   31.5669   13.5378 H           1 PRO       0.0277
    123 H58        -2.2280   32.9896   14.5799 H           1 PRO       0.0277
    124 H59         0.3526   30.6605   16.8483 H           1 PRO       0.1877
    125 H60         1.9756   28.6996   16.0165 H           1 PRO       0.0750
    126 H61         1.4540   29.0772   18.3359 H           1 PRO       0.0484
    127 H62         1.1941   27.3940   17.9552 H           1 PRO       0.0484
    128 H63        -0.0199   28.4465   20.4285 H           1 PRO       0.2386
    129 H64        -2.0510   28.5210   16.8796 H           1 PRO       0.0324
    130 H65        -2.4501   28.6478   20.9463 H           1 PRO       0.1149
@<TRIPOS>BOND
     1     1     2   1
     2     1     7   1
     3     2     3   1
     4     2     5   1
     5     3     4   2
     6     3     8  am
     7     5     6   1
     8     6     7   1
     9     8     9   1
    10     9    10   1
    11     9    12   1
    12    10    11   2
    13    10    18  am
    14    12    13   1
    15    13    14   1
    16    13    15   2
    17    14    16   1
    18    15    17   1
    19    16    17   2
    20    18    19   1
    21    19    20   1
    22    19    22   1
    23    20    21   2
    24    20    26  am
    25    22    23   1
    26    23    24   1
    27    23    25   1
    28    26    27   1
    29    27    28   1
    30    27    30   1
    31    28    29   2
    32    28    32  am
    33    30    31   1
    34    32    33   1
    35    33    34   1
    36    33    41   1
    37    34    35   1
    38    35    36  ar
    39    35    37  ar
    40    36    38  ar
    41    37    39  ar
    42    38    40  ar
    43    39    40  ar
    44    41    42   1
    45    42    43   1
    46    43    44   1
    47    43    48   1
    48    44    45   1
    49    45    46   1
    50    46    47   1
    51    48    49   2
    52    48    50  am
    53    50    51   1
    54    51    52   1
    55    51    54   1
    56    52    53   2
    57    52    55  am
    58    55    56   1
    59    56    57   1
    60    56    59   1
    61    57    58  ar
    62    57    65  ar
    63    59    60   1
    64    60    61   1
    65    60    62   2
    66    61    63   1
    67    62    64   1
    68    63    64   2
    69     1    66   1
    70     1    67   1
    71     2    68   1
    72     5    69   1
    73     5    70   1
    74     6    71   1
    75     6    72   1
    76     7    73   1
    77     7    74   1
    78     8    75   1
    79     9    76   1
    80    12    77   1
    81    12    78   1
    82    14    79   1
    83    15    80   1
    84    16    81   1
    85    18    82   1
    86    19    83   1
    87    22    84   1
    88    22    85   1
    89    23    86   1
    90    24    87   1
    91    24    88   1
    92    24    89   1
    93    25    90   1
    94    25    91   1
    95    25    92   1
    96    26    93   1
    97    27    94   1
    98    30    95   1
    99    30    96   1
   100    31    97   1
   101    32    98   1
   102    33    99   1
   103    34   100   1
   104    34   101   1
   105    36   102   1
   106    37   103   1
   107    38   104   1
   108    39   105   1
   109    40   106   1
   110    41   107   1
   111    41   108   1
   112    42   109   1
   113    42   110   1
   114    43   111   1
   115    44   112   1
   116    44   113   1
   117    45   114   1
   118    45   115   1
   119    47   116   1
   120    47   117   1
   121    47   118   1
   122    50   119   1
   123    51   120   1
   124    54   121   1
   125    54   122   1
   126    54   123   1
   127    55   124   1
   128    56   125   1
   129    59   126   1
   130    59   127   1
   131    61   128   1
   132    62   129   1
   133    63   130   1
@<TRIPOS>SUBSTRUCTURE
     1  PRO      2

