@<TRIPOS>MOLECULE
3uri_ligand_001
   130   133
SMALL
GAST_HUCK
****
This file was generated by PARSER (from files_GN.cpp)

@<TRIPOS>ATOM
      1 N           1.1596   31.1752   14.8277 N.4         1 PRO       0.2461
      2 CA          1.4812   30.9787   16.2567 C.3         1 PRO       0.0670
      3 C           2.6588   30.1717   16.5447 C.2         1 PRO       0.2269
      4 O           3.0190   29.3048   15.7552 O.2         1 PRO      -0.3907
      5 CB          0.1964   30.3772   16.8685 C.3         1 PRO       0.0127
      6 CG         -0.9191   31.0610   16.0739 C.3         1 PRO      -0.0053
      7 CD         -0.3062   31.2317   14.6703 C.3         1 PRO      -0.0313
      8 N           3.3528   30.4021   17.6567 N.am        1 PRO      -0.2592
      9 CA          4.6005   29.8177   18.0666 C.3         1 PRO       0.1422
     10 C           5.7082   30.7292   17.7730 C.2         1 PRO       0.2060
     11 O           6.7553   30.3281   17.2856 O.2         1 PRO      -0.3942
     12 CB          4.7559   28.3396   17.5831 C.3         1 PRO       0.0427
     13 CG          5.5932   27.5278   18.4930 C.2         1 PRO       0.0561
     14 ND1         6.9173   27.3390   18.4135 N.pl3       1 PRO      -0.2623
     15 CD2         5.1653   26.7927   19.6039 C.2         1 PRO      -0.0276
     16 CE1         7.2997   26.5438   19.4259 C.2         1 PRO       0.0875
     17 NE2         6.2308   26.1930   20.1657 N.2         1 PRO      -0.3437
     18 N           5.5505   32.0060   18.0943 N.am        1 PRO      -0.2636
     19 CA          6.4907   33.0895   18.0274 C.3         1 PRO       0.1312
     20 C           6.6975   33.6318   16.6868 C.2         1 PRO       0.2040
     21 O           7.6441   34.3982   16.5347 O.2         1 PRO      -0.3944
     22 CB          7.8154   32.7523   18.7955 C.3         1 PRO      -0.0101
     23 CG          7.6729   32.0490   20.1879 C.3         1 PRO      -0.0425
     24 CD1         9.0705   31.7235   20.7890 C.3         1 PRO      -0.0625
     25 CD2         6.8292   32.8722   21.2025 C.3         1 PRO      -0.0625
     26 N           5.8075   33.4765   15.7062 N.am        1 PRO      -0.2616
     27 CA          5.8475   34.0726   14.3937 C.3         1 PRO       0.1538
     28 C           4.6641   34.8727   14.0927 C.2         1 PRO       0.2045
     29 O           3.6707   34.8060   14.8036 O.2         1 PRO      -0.3944
     30 CB          6.0408   32.9561   13.3367 C.3         1 PRO       0.0843
     31 OG          4.9790   32.0066   13.3496 O.3         1 PRO      -0.3903
     32 N           4.6778   35.6881   13.0383 N.am        1 PRO      -0.2748
     33 C1          3.6058   36.5276   12.5569 C.3         1 PRO       0.0911
     34 C2          2.6612   35.7019   11.6046 C.3         1 PRO       0.0089
     35 C3          1.1983   35.6988   11.8869 C.ar        1 PRO      -0.0406
     36 C4          0.6886   34.9520   12.9757 C.ar        1 PRO      -0.0603
     37 C5          0.2832   36.3920   11.0589 C.ar        1 PRO      -0.0603
     38 C6         -0.6899   34.9255   13.2501 C.ar        1 PRO      -0.0686
     39 C7         -1.0967   36.3604   11.3252 C.ar        1 PRO      -0.0686
     40 C8         -1.5856   35.6279   12.4237 C.ar        1 PRO      -0.0687
     41 C9          2.9788   37.3948   13.7127 C.3         1 PRO      -0.0062
     42 N2          3.1233   38.8644   13.5502 N.4         1 PRO       0.2479
     43 C10         2.2395   39.6317   12.6213 C.3         1 PRO       0.0676
     44 C11         0.8057   39.8305   13.2235 C.3         1 PRO       0.0169
     45 C12         0.6997   40.7982   14.4393 C.3         1 PRO       0.0007
     46 SD         -0.7713   41.8556   14.2995 S.3         1 PRO      -0.1638
     47 C13        -0.4564   42.9043   15.7451 C.3         1 PRO      -0.0181
     48 C           2.8565   40.9101   12.2364 C.2         1 PRO       0.2268
     49 O           3.9726   41.1932   12.6601 O.2         1 PRO      -0.3907
     50 N           2.2172   41.7631   11.4401 N.am        1 PRO      -0.2613
     51 CA          2.6343   43.0848   11.0478 C.3         1 PRO       0.1283
     52 C           2.6324   44.0124   12.1825 C.2         1 PRO       0.2032
     53 O           1.5981   44.5925   12.4983 O.2         1 PRO      -0.3944
     54 CB          1.7259   43.5385    9.8712 C.3         1 PRO      -0.0244
     55 N           3.7465   44.1965   12.8862 N.am        1 PRO      -0.2677
     56 CA          3.9629   45.0178   14.0457 C.3         1 PRO       0.1056
     57 C           2.8381   44.8977   15.0040 C.2         1 PRO       0.0621
     58 O           1.8168   45.7855   14.9999 O.co2       1 PRO      -0.5664
     59 CB          4.3342   46.4864   13.6740 C.3         1 PRO       0.0372
     60 CG          4.7033   47.3159   14.8409 C.2         1 PRO       0.0555
     61 ND1         3.9563   47.5302   15.9328 N.pl3       1 PRO      -0.2623
     62 CD2         5.8820   48.0314   15.0349 C.2         1 PRO      -0.0276
     63 CE1         4.6351   48.3344   16.7648 C.2         1 PRO       0.0875
     64 NE2         5.8237   48.6488   16.2243 N.2         1 PRO      -0.3437
     65 OXT         2.8405   43.9484   15.9689 O.co2       1 PRO      -0.5664
     66 H1          1.5230   30.4011   14.2682 H           1 PRO       0.2035
     67 H2          1.5751   32.0477   14.5010 H           1 PRO       0.2035
     68 H3          1.6533   31.9714   16.6849 H           1 PRO       0.1099
     69 H4          0.1186   30.5861   17.9385 H           1 PRO       0.0347
     70 H5          0.1486   29.2975   16.6979 H           1 PRO       0.0347
     71 H6         -1.1366   32.0427   16.5120 H           1 PRO       0.0320
     72 H7         -1.8361   30.4624   16.0535 H           1 PRO       0.0320
     73 H8         -0.6330   30.4234   14.0099 H           1 PRO       0.0814
     74 H9         -0.6019   32.1882   14.2306 H           1 PRO       0.0814
     75 H10         3.0440   31.1303   18.2179 H           1 PRO       0.1886
     76 H11         4.5283   29.7754   19.1618 H           1 PRO       0.0824
     77 H12         5.1894   28.2885   16.5791 H           1 PRO       0.0491
     78 H13         3.7753   27.8633   17.5329 H           1 PRO       0.0491
     79 H14         7.5205   27.7335   17.7593 H           1 PRO       0.2386
     80 H15         4.2049   26.7431   19.9425 H           1 PRO       0.0324
     81 H16         8.2579   26.2470   19.6249 H           1 PRO       0.1149
     82 H17         4.6920   32.2337   18.4826 H           1 PRO       0.1883
     83 H18         6.0117   33.9008   18.5828 H           1 PRO       0.0800
     84 H19         8.3712   33.6846   18.9487 H           1 PRO       0.0315
     85 H20         8.4289   32.1170   18.1502 H           1 PRO       0.0315
     86 H21         7.1652   31.0905   20.0406 H           1 PRO       0.0298
     87 H22         8.9637   31.1341   21.7015 H           1 PRO       0.0232
     88 H23         9.6106   32.6406   21.0302 H           1 PRO       0.0232
     89 H24         9.6701   31.1425   20.0841 H           1 PRO       0.0232
     90 H25         5.8037   32.9923   20.8508 H           1 PRO       0.0232
     91 H26         7.2653   33.8601   21.3499 H           1 PRO       0.0232
     92 H27         6.7878   32.3611   22.1656 H           1 PRO       0.0232
     93 H28         5.0415   32.9144   15.8946 H           1 PRO       0.1884
     94 H29         6.7115   34.7423   14.3118 H           1 PRO       0.0823
     95 H30         6.9786   32.4298   13.5304 H           1 PRO       0.0606
     96 H31         6.1019   33.3913   12.3366 H           1 PRO       0.0606
     97 H32         4.8841   31.7243   12.4169 H           1 PRO       0.2097
     98 H33         5.5039   35.7279   12.5313 H           1 PRO       0.1859
     99 H34         4.1211   37.2462   11.9053 H           1 PRO       0.0632
    100 H35         2.9794   34.6562   11.5736 H           1 PRO       0.0450
    101 H36         2.8182   36.0599   10.5819 H           1 PRO       0.0450
    102 H37         1.3218   34.4250   13.5832 H           1 PRO       0.0557
    103 H38         0.6208   36.9317   10.2580 H           1 PRO       0.0557
    104 H39        -1.0459   34.3941   14.0482 H           1 PRO       0.0599
    105 H40        -1.7470   36.8683   10.7203 H           1 PRO       0.0599
    106 H41        -2.5885   35.6075   12.6185 H           1 PRO       0.0559
    107 H42         3.5110   37.1863   14.6400 H           1 PRO       0.0839
    108 H43         1.9400   37.1483   13.9130 H           1 PRO       0.0839
    109 H44         4.0909   39.0265   13.2601 H           1 PRO       0.2036
    110 H45         3.0114   39.2869   14.4728 H           1 PRO       0.2036
    111 H46         2.1318   39.0576   11.6983 H           1 PRO       0.1099
    112 H47         0.4028   38.8609   13.5252 H           1 PRO       0.0354
    113 H48         0.1499   40.1885   12.4227 H           1 PRO       0.0354
    114 H49         1.5817   41.4434   14.4976 H           1 PRO       0.0380
    115 H50         0.6377   40.2176   15.3628 H           1 PRO       0.0380
    116 H51        -1.1513   43.7530   15.7267 H           1 PRO       0.0340
    117 H52         0.5706   43.2911   15.7268 H           1 PRO       0.0340
    118 H53        -0.6144   42.3264   16.6654 H           1 PRO       0.0340
    119 H54         1.3558   41.4731   11.0963 H           1 PRO       0.1884
    120 H55         3.6476   43.0219   10.6399 H           1 PRO       0.0797
    121 H56         2.0326   44.5240    9.5114 H           1 PRO       0.0277
    122 H57         0.6808   43.5893   10.1922 H           1 PRO       0.0277
    123 H58         1.7965   42.8335    9.0402 H           1 PRO       0.0277
    124 H59         4.5273   43.7156   12.5689 H           1 PRO       0.1877
    125 H60         4.8432   44.5812   14.5260 H           1 PRO       0.0750
    126 H61         3.5006   46.9674   13.1615 H           1 PRO       0.0484
    127 H62         5.1743   46.4671   12.9763 H           1 PRO       0.0484
    128 H63         3.0737   47.1645   16.0972 H           1 PRO       0.2386
    129 H64         6.6734   48.0782   14.3883 H           1 PRO       0.0324
    130 H65         4.3008   48.6561   17.6739 H           1 PRO       0.1149
@<TRIPOS>BOND
     1     1     2   1
     2     1     7   1
     3     2     3   1
     4     2     5   1
     5     3     4   2
     6     3     8  am
     7     5     6   1
     8     6     7   1
     9     8     9   1
    10     9    10   1
    11     9    12   1
    12    10    11   2
    13    10    18  am
    14    12    13   1
    15    13    14   1
    16    13    15   2
    17    14    16   1
    18    15    17   1
    19    16    17   2
    20    18    19   1
    21    19    20   1
    22    19    22   1
    23    20    21   2
    24    20    26  am
    25    22    23   1
    26    23    24   1
    27    23    25   1
    28    26    27   1
    29    27    28   1
    30    27    30   1
    31    28    29   2
    32    28    32  am
    33    30    31   1
    34    32    33   1
    35    33    34   1
    36    33    41   1
    37    34    35   1
    38    35    36  ar
    39    35    37  ar
    40    36    38  ar
    41    37    39  ar
    42    38    40  ar
    43    39    40  ar
    44    41    42   1
    45    42    43   1
    46    43    44   1
    47    43    48   1
    48    44    45   1
    49    45    46   1
    50    46    47   1
    51    48    49   2
    52    48    50  am
    53    50    51   1
    54    51    52   1
    55    51    54   1
    56    52    53   2
    57    52    55  am
    58    55    56   1
    59    56    57   1
    60    56    59   1
    61    57    58  ar
    62    57    65  ar
    63    59    60   1
    64    60    61   1
    65    60    62   2
    66    61    63   1
    67    62    64   1
    68    63    64   2
    69     1    66   1
    70     1    67   1
    71     2    68   1
    72     5    69   1
    73     5    70   1
    74     6    71   1
    75     6    72   1
    76     7    73   1
    77     7    74   1
    78     8    75   1
    79     9    76   1
    80    12    77   1
    81    12    78   1
    82    14    79   1
    83    15    80   1
    84    16    81   1
    85    18    82   1
    86    19    83   1
    87    22    84   1
    88    22    85   1
    89    23    86   1
    90    24    87   1
    91    24    88   1
    92    24    89   1
    93    25    90   1
    94    25    91   1
    95    25    92   1
    96    26    93   1
    97    27    94   1
    98    30    95   1
    99    30    96   1
   100    31    97   1
   101    32    98   1
   102    33    99   1
   103    34   100   1
   104    34   101   1
   105    36   102   1
   106    37   103   1
   107    38   104   1
   108    39   105   1
   109    40   106   1
   110    41   107   1
   111    41   108   1
   112    42   109   1
   113    42   110   1
   114    43   111   1
   115    44   112   1
   116    44   113   1
   117    45   114   1
   118    45   115   1
   119    47   116   1
   120    47   117   1
   121    47   118   1
   122    50   119   1
   123    51   120   1
   124    54   121   1
   125    54   122   1
   126    54   123   1
   127    55   124   1
   128    56   125   1
   129    59   126   1
   130    59   127   1
   131    61   128   1
   132    62   129   1
   133    63   130   1
@<TRIPOS>SUBSTRUCTURE
     1  PRO      2

