@<TRIPOS>MOLECULE
3uri_ligand_026
   130   133
SMALL
GAST_HUCK
****
This file was generated by PARSER (from files_GN.cpp)

@<TRIPOS>ATOM
      1 N          -9.3060   25.9709   18.4066 N.4         1 PRO       0.2461
      2 CA         -8.0720   25.5089   19.0639 C.3         1 PRO       0.0670
      3 C          -7.0678   26.5319   19.3142 C.2         1 PRO       0.2269
      4 O          -7.1982   27.6630   18.8592 O.2         1 PRO      -0.3907
      5 CB         -7.5799   24.3879   18.1217 C.3         1 PRO       0.0127
      6 CG         -8.8735   23.7620   17.5623 C.3         1 PRO      -0.0053
      7 CD         -9.9896   24.7720   17.9019 C.3         1 PRO      -0.0313
      8 N          -6.0220   26.2039   20.0589 N.am        1 PRO      -0.2592
      9 CA         -4.9099   27.0285   20.4304 C.3         1 PRO       0.1422
     10 C          -4.0739   27.2554   19.2587 C.2         1 PRO       0.2060
     11 O          -3.8183   26.3107   18.5187 O.2         1 PRO      -0.3942
     12 CB         -4.0998   26.3341   21.5739 C.3         1 PRO       0.0427
     13 CG         -4.8160   26.2573   22.8654 C.2         1 PRO       0.0561
     14 ND1        -5.8980   25.5106   23.1318 N.pl3       1 PRO      -0.2623
     15 CD2        -4.4913   26.8951   24.0622 C.2         1 PRO      -0.0276
     16 CE1        -6.2277   25.6687   24.4184 C.2         1 PRO       0.0875
     17 NE2        -5.3673   26.5212   25.0066 N.2         1 PRO      -0.3437
     18 N          -3.5778   28.4605   19.0120 N.am        1 PRO      -0.2636
     19 CA         -2.6614   28.8143   17.9545 C.3         1 PRO       0.1312
     20 C          -1.2511   28.5909   18.2944 C.2         1 PRO       0.2040
     21 O          -0.8276   28.9119   19.4001 O.2         1 PRO      -0.3944
     22 CB         -2.9273   30.2625   17.4163 C.3         1 PRO      -0.0101
     23 CG         -3.0481   31.4822   18.3984 C.3         1 PRO      -0.0425
     24 CD1        -4.4951   31.7293   18.9225 C.3         1 PRO      -0.0625
     25 CD2        -2.0149   31.4956   19.5620 C.3         1 PRO      -0.0625
     26 N          -0.4260   28.0804   17.3806 N.am        1 PRO      -0.2616
     27 CA          0.9891   27.8748   17.5299 C.3         1 PRO       0.1538
     28 C           1.6910   28.6913   16.5448 C.2         1 PRO       0.2045
     29 O           2.5763   28.1957   15.8554 O.2         1 PRO      -0.3944
     30 CB          1.3596   26.3617   17.5232 C.3         1 PRO       0.0843
     31 OG          0.9605   25.6882   16.3282 O.3         1 PRO      -0.3903
     32 N           1.4448   29.9983   16.4947 N.am        1 PRO      -0.2748
     33 C1          2.2037   30.9970   15.7861 C.3         1 PRO       0.0911
     34 C2          1.6789   32.4383   16.0891 C.3         1 PRO       0.0089
     35 C3          0.6049   32.8406   15.1397 C.ar        1 PRO      -0.0406
     36 C4         -0.7572   32.6102   15.4512 C.ar        1 PRO      -0.0603
     37 C5          0.9324   33.3995   13.8747 C.ar        1 PRO      -0.0603
     38 C6         -1.7646   32.9320   14.5212 C.ar        1 PRO      -0.0686
     39 C7         -0.0788   33.7149   12.9477 C.ar        1 PRO      -0.0686
     40 C8         -1.4267   33.4700   13.2649 C.ar        1 PRO      -0.0687
     41 C9          3.7348   30.8471   16.0528 C.3         1 PRO      -0.0062
     42 N2          4.0537   30.5182   17.4661 N.4         1 PRO       0.2479
     43 C10         5.3833   29.8798   17.7288 C.3         1 PRO       0.0676
     44 C11         6.5280   30.9329   17.5956 C.3         1 PRO       0.0169
     45 C12         6.6173   31.9367   18.7821 C.3         1 PRO       0.0007
     46 SD          8.0095   33.0860   18.6337 S.3         1 PRO      -0.1638
     47 C13         7.2363   34.2882   17.5249 C.3         1 PRO      -0.0181
     48 C           5.4168   29.1720   19.0096 C.2         1 PRO       0.2268
     49 O           4.5615   29.4022   19.8586 O.2         1 PRO      -0.3907
     50 N           6.3700   28.2748   19.2439 N.am        1 PRO      -0.2613
     51 CA          6.5539   27.5326   20.4615 C.3         1 PRO       0.1283
     52 C           6.7939   28.4266   21.5948 C.2         1 PRO       0.2032
     53 O           7.6474   29.2991   21.4890 O.2         1 PRO      -0.3944
     54 CB          7.7100   26.5140   20.3052 C.3         1 PRO      -0.0244
     55 N           6.0393   28.3020   22.6820 N.am        1 PRO      -0.2677
     56 CA          5.9884   29.0496   23.9139 C.3         1 PRO       0.1056
     57 C           4.5658   29.3216   24.2342 C.2         1 PRO       0.0621
     58 O           4.1663   29.4215   25.5237 O.co2       1 PRO      -0.5664
     59 CB          6.8725   30.3235   24.1141 C.3         1 PRO       0.0372
     60 CG          6.5088   31.5145   23.3061 C.2         1 PRO       0.0555
     61 ND1         5.2735   31.8717   22.9172 N.pl3       1 PRO      -0.2623
     62 CD2         7.3445   32.5550   22.9013 C.2         1 PRO      -0.0276
     63 CE1         5.3435   33.0442   22.2753 C.2         1 PRO       0.0875
     64 NE2         6.6157   33.4818   22.2625 N.2         1 PRO      -0.3437
     65 OXT         3.6986   29.7321   23.2796 O.co2       1 PRO      -0.5664
     66 H1         -9.0684   26.5753   17.6173 H           1 PRO       0.2035
     67 H2         -9.9032   26.4769   19.0632 H           1 PRO       0.2035
     68 H3         -8.3613   25.0743   20.0283 H           1 PRO       0.1099
     69 H4         -6.9700   23.6521   18.6571 H           1 PRO       0.0347
     70 H5         -6.9898   24.8059   17.2973 H           1 PRO       0.0347
     71 H6         -9.0671   22.7933   18.0350 H           1 PRO       0.0320
     72 H7         -8.7929   23.6169   16.4805 H           1 PRO       0.0320
     73 H8        -10.5886   25.0168   17.0238 H           1 PRO       0.0814
     74 H9        -10.6432   24.3676   18.6803 H           1 PRO       0.0814
     75 H10        -6.0148   25.2981   20.4038 H           1 PRO       0.1886
     76 H11        -5.2862   27.9792   20.8245 H           1 PRO       0.0824
     77 H12        -3.1578   26.8707   21.7299 H           1 PRO       0.0491
     78 H13        -3.8530   25.3099   21.2724 H           1 PRO       0.0491
     79 H14        -6.3401   24.9268   22.4951 H           1 PRO       0.2386
     80 H15        -3.7001   27.5252   24.2085 H           1 PRO       0.0324
     81 H16        -7.0082   25.2083   24.8880 H           1 PRO       0.1149
     82 H17        -3.8552   29.1664   19.6070 H           1 PRO       0.1883
     83 H18        -2.8989   28.1452   17.1194 H           1 PRO       0.0800
     84 H19        -3.8467   30.2228   16.8196 H           1 PRO       0.0315
     85 H20        -2.1239   30.5025   16.7066 H           1 PRO       0.0315
     86 H21        -2.8150   32.3648   17.7899 H           1 PRO       0.0298
     87 H22        -4.5388   32.6751   19.4663 H           1 PRO       0.0232
     88 H23        -4.8295   30.9381   19.5976 H           1 PRO       0.0232
     89 H24        -5.1925   31.7881   18.0823 H           1 PRO       0.0232
     90 H25        -1.0036   31.3106   19.1820 H           1 PRO       0.0232
     91 H26        -2.2604   30.7344   20.3080 H           1 PRO       0.0232
     92 H27        -2.0243   32.4752   20.0502 H           1 PRO       0.0232
     93 H28        -0.8087   27.8824   16.5070 H           1 PRO       0.1884
     94 H29         1.2988   28.2643   18.5090 H           1 PRO       0.0823
     95 H30         0.8979   25.8640   18.3794 H           1 PRO       0.0606
     96 H31         2.4427   26.2529   17.6159 H           1 PRO       0.0606
     97 H32        -0.0109   25.6194   16.3921 H           1 PRO       0.2097
     98 H33         0.7340   30.3279   17.0669 H           1 PRO       0.1859
     99 H34         2.0636   30.8191   14.7174 H           1 PRO       0.0632
    100 H35         2.5000   33.1600   16.0131 H           1 PRO       0.0450
    101 H36         1.3105   32.5008   17.1178 H           1 PRO       0.0450
    102 H37        -1.0238   32.2062   16.3590 H           1 PRO       0.0557
    103 H38         1.9101   33.5704   13.6152 H           1 PRO       0.0557
    104 H39        -2.7455   32.7507   14.7549 H           1 PRO       0.0599
    105 H40         0.1675   34.1005   12.0309 H           1 PRO       0.0599
    106 H41        -2.1639   33.6890   12.5862 H           1 PRO       0.0559
    107 H42         4.2754   31.7525   15.7598 H           1 PRO       0.0839
    108 H43         4.1039   30.0378   15.4156 H           1 PRO       0.0839
    109 H44         3.3493   29.8499   17.7837 H           1 PRO       0.2036
    110 H45         3.9623   31.3611   18.0452 H           1 PRO       0.2036
    111 H46         5.5620   29.1111   16.9675 H           1 PRO       0.1099
    112 H47         6.3857   31.4844   16.6578 H           1 PRO       0.0354
    113 H48         7.4968   30.4170   17.5138 H           1 PRO       0.0354
    114 H49         6.7700   31.3705   19.7047 H           1 PRO       0.0380
    115 H50         5.6888   32.5029   18.8954 H           1 PRO       0.0380
    116 H51         7.9423   35.0988   17.3522 H           1 PRO       0.0340
    117 H52         6.3328   34.6962   17.9834 H           1 PRO       0.0340
    118 H53         6.9825   33.8252   16.5700 H           1 PRO       0.0340
    119 H54         7.0050   28.1095   18.5312 H           1 PRO       0.1884
    120 H55         5.6438   26.9428   20.6214 H           1 PRO       0.0797
    121 H56         7.8294   25.9310   21.2246 H           1 PRO       0.0277
    122 H57         8.6534   27.0184   20.0833 H           1 PRO       0.0277
    123 H58         7.4890   25.8232   19.4897 H           1 PRO       0.0277
    124 H59         5.4216   27.5503   22.6693 H           1 PRO       0.1877
    125 H60         6.3214   28.3364   24.6769 H           1 PRO       0.0750
    126 H61         7.9172   30.0592   23.9203 H           1 PRO       0.0484
    127 H62         6.8239   30.6291   25.1671 H           1 PRO       0.0484
    128 H63         4.4577   31.3652   23.0765 H           1 PRO       0.2386
    129 H64         8.3497   32.6143   23.0688 H           1 PRO       0.0324
    130 H65         4.5479   33.5477   21.8795 H           1 PRO       0.1149
@<TRIPOS>BOND
     1     1     2   1
     2     1     7   1
     3     2     3   1
     4     2     5   1
     5     3     4   2
     6     3     8  am
     7     5     6   1
     8     6     7   1
     9     8     9   1
    10     9    10   1
    11     9    12   1
    12    10    11   2
    13    10    18  am
    14    12    13   1
    15    13    14   1
    16    13    15   2
    17    14    16   1
    18    15    17   1
    19    16    17   2
    20    18    19   1
    21    19    20   1
    22    19    22   1
    23    20    21   2
    24    20    26  am
    25    22    23   1
    26    23    24   1
    27    23    25   1
    28    26    27   1
    29    27    28   1
    30    27    30   1
    31    28    29   2
    32    28    32  am
    33    30    31   1
    34    32    33   1
    35    33    34   1
    36    33    41   1
    37    34    35   1
    38    35    36  ar
    39    35    37  ar
    40    36    38  ar
    41    37    39  ar
    42    38    40  ar
    43    39    40  ar
    44    41    42   1
    45    42    43   1
    46    43    44   1
    47    43    48   1
    48    44    45   1
    49    45    46   1
    50    46    47   1
    51    48    49   2
    52    48    50  am
    53    50    51   1
    54    51    52   1
    55    51    54   1
    56    52    53   2
    57    52    55  am
    58    55    56   1
    59    56    57   1
    60    56    59   1
    61    57    58  ar
    62    57    65  ar
    63    59    60   1
    64    60    61   1
    65    60    62   2
    66    61    63   1
    67    62    64   1
    68    63    64   2
    69     1    66   1
    70     1    67   1
    71     2    68   1
    72     5    69   1
    73     5    70   1
    74     6    71   1
    75     6    72   1
    76     7    73   1
    77     7    74   1
    78     8    75   1
    79     9    76   1
    80    12    77   1
    81    12    78   1
    82    14    79   1
    83    15    80   1
    84    16    81   1
    85    18    82   1
    86    19    83   1
    87    22    84   1
    88    22    85   1
    89    23    86   1
    90    24    87   1
    91    24    88   1
    92    24    89   1
    93    25    90   1
    94    25    91   1
    95    25    92   1
    96    26    93   1
    97    27    94   1
    98    30    95   1
    99    30    96   1
   100    31    97   1
   101    32    98   1
   102    33    99   1
   103    34   100   1
   104    34   101   1
   105    36   102   1
   106    37   103   1
   107    38   104   1
   108    39   105   1
   109    40   106   1
   110    41   107   1
   111    41   108   1
   112    42   109   1
   113    42   110   1
   114    43   111   1
   115    44   112   1
   116    44   113   1
   117    45   114   1
   118    45   115   1
   119    47   116   1
   120    47   117   1
   121    47   118   1
   122    50   119   1
   123    51   120   1
   124    54   121   1
   125    54   122   1
   126    54   123   1
   127    55   124   1
   128    56   125   1
   129    59   126   1
   130    59   127   1
   131    61   128   1
   132    62   129   1
   133    63   130   1
@<TRIPOS>SUBSTRUCTURE
     1  PRO      2

