@<TRIPOS>MOLECULE
3uri_ligand_008
   130   133
SMALL
GAST_HUCK
****
This file was generated by PARSER (from files_GN.cpp)

@<TRIPOS>ATOM
      1 N           4.8000   39.0178   10.9133 N.4         1 PRO       0.2461
      2 CA          4.9035   38.6908   12.3459 C.3         1 PRO       0.0670
      3 C           3.8339   37.8011   12.7597 C.2         1 PRO       0.2269
      4 O           3.1202   38.0745   13.7156 O.2         1 PRO      -0.3907
      5 CB          4.9885   40.0799   13.0216 C.3         1 PRO       0.0127
      6 CG          5.8352   40.9001   12.0338 C.3         1 PRO      -0.0053
      7 CD          5.5824   40.2387   10.6621 C.3         1 PRO      -0.0313
      8 N           3.6679   36.6710   12.0853 N.am        1 PRO      -0.2592
      9 CA          2.6864   35.6474   12.3296 C.3         1 PRO       0.1422
     10 C           2.9974   34.8929   13.5531 C.2         1 PRO       0.2060
     11 O           3.6718   35.4322   14.4275 O.2         1 PRO      -0.3942
     12 CB          2.5993   34.7853   11.0227 C.3         1 PRO       0.0427
     13 CG          1.2290   34.3918   10.6543 C.2         1 PRO       0.0561
     14 ND1         0.8196   33.1774   10.2739 N.pl3       1 PRO      -0.2623
     15 CD2         0.1190   35.2285   10.5450 C.2         1 PRO      -0.0276
     16 CE1        -0.4769   33.2487    9.9471 C.2         1 PRO       0.0875
     17 NE2        -0.9224   34.5057   10.1149 N.2         1 PRO      -0.3437
     18 N           2.4710   33.6918   13.7914 N.am        1 PRO      -0.2636
     19 CA          2.7086   32.8819   14.9607 C.3         1 PRO       0.1312
     20 C           4.0990   32.4256   14.9652 C.2         1 PRO       0.2040
     21 O           4.5055   31.7710   14.0115 O.2         1 PRO      -0.3944
     22 CB          1.7019   31.6931   15.0217 C.3         1 PRO      -0.0101
     23 CG          0.1928   32.1364   15.0883 C.3         1 PRO      -0.0425
     24 CD1        -0.6533   31.4945   13.9568 C.3         1 PRO      -0.0625
     25 CD2        -0.4459   31.8706   16.4789 C.3         1 PRO      -0.0625
     26 N           4.9301   32.8531   15.9093 N.am        1 PRO      -0.2616
     27 CA          6.3692   32.7567   15.9261 C.3         1 PRO       0.1538
     28 C           6.7699   32.0054   17.1160 C.2         1 PRO       0.2045
     29 O           7.3965   32.5398   18.0294 O.2         1 PRO      -0.3944
     30 CB          6.9348   34.2029   15.8708 C.3         1 PRO       0.0843
     31 OG          6.3521   34.9527   14.8095 O.3         1 PRO      -0.3903
     32 N           6.4731   30.7122   17.1695 N.am        1 PRO      -0.2748
     33 C1          6.8492   29.7643   18.1847 C.3         1 PRO       0.0911
     34 C2          6.2551   30.0630   19.6068 C.3         1 PRO       0.0089
     35 C3          6.8289   31.1625   20.4437 C.ar        1 PRO      -0.0406
     36 C4          5.9631   32.0191   21.1755 C.ar        1 PRO      -0.0603
     37 C5          8.2221   31.2850   20.6635 C.ar        1 PRO      -0.0603
     38 C6          6.4724   32.9727   22.0794 C.ar        1 PRO      -0.0686
     39 C7          8.7342   32.2449   21.5589 C.ar        1 PRO      -0.0686
     40 C8          7.8582   33.0790   22.2784 C.ar        1 PRO      -0.0687
     41 C9          6.4936   28.3176   17.6850 C.3         1 PRO      -0.0062
     42 N2          5.1279   28.0070   17.1655 N.4         1 PRO       0.2479
     43 C10         3.8880   28.4145   17.8932 C.3         1 PRO       0.0676
     44 C11         2.6220   27.9650   17.0792 C.3         1 PRO       0.0169
     45 C12         1.2704   28.5535   17.5896 C.3         1 PRO       0.0007
     46 SD          0.8079   28.0524   19.2790 S.3         1 PRO      -0.1638
     47 C13        -0.5363   26.9067   18.8890 C.3         1 PRO      -0.0181
     48 C           3.8686   27.9085   19.2681 C.2         1 PRO       0.2268
     49 O           3.5554   28.6671   20.1794 O.2         1 PRO      -0.3907
     50 N           4.1790   26.6417   19.5183 N.am        1 PRO      -0.2613
     51 CA          4.3347   26.0444   20.8211 C.3         1 PRO       0.1283
     52 C           5.7232   26.1559   21.2820 C.2         1 PRO       0.2032
     53 O           6.6283   25.9619   20.4750 O.2         1 PRO      -0.3944
     54 CB          3.8788   24.5670   20.7453 C.3         1 PRO      -0.0244
     55 N           5.9991   26.4380   22.5549 N.am        1 PRO      -0.2677
     56 CA          7.2774   26.7264   23.1472 C.3         1 PRO       0.1056
     57 C           7.5588   28.1730   22.9865 C.2         1 PRO       0.0621
     58 O           6.6477   29.0843   23.4017 O.co2       1 PRO      -0.5664
     59 CB          8.4402   25.7889   22.6803 C.3         1 PRO       0.0372
     60 CG          9.6651   25.8907   23.5154 C.2         1 PRO       0.0555
     61 ND1        10.4213   26.9828   23.7128 N.pl3       1 PRO      -0.2623
     62 CD2        10.2819   24.8626   24.2322 C.2         1 PRO      -0.0276
     63 CE1        11.4485   26.6534   24.5092 C.2         1 PRO       0.0875
     64 NE2        11.3752   25.3502   24.8352 N.2         1 PRO      -0.3437
     65 OXT         8.6671   28.6255   22.3539 O.co2       1 PRO      -0.5664
     66 H1          3.8219   39.2071   10.6848 H           1 PRO       0.2035
     67 H2          5.1369   38.2351   10.3437 H           1 PRO       0.2035
     68 H3          5.8571   38.1718   12.5189 H           1 PRO       0.1099
     69 H4          5.4580   40.0231   14.0087 H           1 PRO       0.0347
     70 H5          3.9987   40.5313   13.1151 H           1 PRO       0.0347
     71 H6          6.8949   40.8246   12.2937 H           1 PRO       0.0320
     72 H7          5.5440   41.9544   12.0387 H           1 PRO       0.0320
     73 H8          5.0160   40.9047   10.0069 H           1 PRO       0.0814
     74 H9          6.5230   39.9783   10.1737 H           1 PRO       0.0814
     75 H10         4.2477   36.5427   11.3182 H           1 PRO       0.1886
     76 H11         1.7169   36.1261   12.5021 H           1 PRO       0.0824
     77 H12         3.2291   33.8950   11.1185 H           1 PRO       0.0491
     78 H13         2.9803   35.3492   10.1651 H           1 PRO       0.0491
     79 H14         1.3915   32.3978   10.2103 H           1 PRO       0.2386
     80 H15         0.1015   36.2321   10.7376 H           1 PRO       0.0324
     81 H16        -1.0418   32.4800    9.5970 H           1 PRO       0.1149
     82 H17         1.8734   33.3276   13.1105 H           1 PRO       0.1883
     83 H18         2.5103   33.4915   15.8454 H           1 PRO       0.0800
     84 H19         1.9458   31.0763   15.9013 H           1 PRO       0.0315
     85 H20         1.8694   31.0525   14.1484 H           1 PRO       0.0315
     86 H21         0.1285   33.2149   14.9320 H           1 PRO       0.0298
     87 H22        -1.6837   31.8553   13.9930 H           1 PRO       0.0232
     88 H23        -0.6558   30.4064   14.0428 H           1 PRO       0.0232
     89 H24        -0.2314   31.7675   12.9878 H           1 PRO       0.0232
     90 H25         0.1749   32.2914   17.2732 H           1 PRO       0.0232
     91 H26        -0.5595   30.8004   16.6555 H           1 PRO       0.0232
     92 H27        -1.4341   32.3363   16.5367 H           1 PRO       0.0232
     93 H28         4.5300   33.3616   16.6372 H           1 PRO       0.1884
     94 H29         6.7496   32.2179   15.0467 H           1 PRO       0.0823
     95 H30         8.0202   34.1768   15.7420 H           1 PRO       0.0606
     96 H31         6.7132   34.7134   16.8104 H           1 PRO       0.0606
     97 H32         7.0537   35.0118   14.1189 H           1 PRO       0.2097
     98 H33         6.0240   30.3452   16.3899 H           1 PRO       0.1859
     99 H34         7.9407   29.7856   18.2584 H           1 PRO       0.0632
    100 H35         6.3404   29.1502   20.2123 H           1 PRO       0.0450
    101 H36         5.1884   30.2483   19.4653 H           1 PRO       0.0450
    102 H37         4.9468   31.9435   21.0787 H           1 PRO       0.0557
    103 H38         8.8785   30.6714   20.1817 H           1 PRO       0.0557
    104 H39         5.8346   33.5700   22.6093 H           1 PRO       0.0599
    105 H40         9.7472   32.3302   21.6969 H           1 PRO       0.0599
    106 H41         8.2221   33.7564   22.9471 H           1 PRO       0.0559
    107 H42         6.7419   27.5970   18.4654 H           1 PRO       0.0839
    108 H43         7.1664   28.0958   16.8460 H           1 PRO       0.0839
    109 H44         5.0838   26.9892   17.0719 H           1 PRO       0.2036
    110 H45         5.0819   28.4074   16.2229 H           1 PRO       0.2036
    111 H46         3.8844   29.5131   17.8964 H           1 PRO       0.1099
    112 H47         2.5595   26.8725   17.0386 H           1 PRO       0.0354
    113 H48         2.7503   28.3236   16.0502 H           1 PRO       0.0354
    114 H49         0.4827   28.2755   16.8878 H           1 PRO       0.0380
    115 H50         1.3435   29.6522   17.5763 H           1 PRO       0.0380
    116 H51        -0.8790   26.4250   19.8053 H           1 PRO       0.0340
    117 H52        -0.1992   26.1384   18.1905 H           1 PRO       0.0340
    118 H53        -1.3697   27.4610   18.4559 H           1 PRO       0.0340
    119 H54         4.4100   26.0807   18.7595 H           1 PRO       0.1884
    120 H55         3.6646   26.5446   21.5336 H           1 PRO       0.0797
    121 H56         4.0392   24.0645   21.7064 H           1 PRO       0.0277
    122 H57         4.4312   24.0378   19.9640 H           1 PRO       0.0277
    123 H58         2.8127   24.5202   20.5094 H           1 PRO       0.0277
    124 H59         5.2356   26.5119   23.1497 H           1 PRO       0.1877
    125 H60         7.1455   26.5524   24.2167 H           1 PRO       0.0750
    126 H61         8.7125   26.0091   21.6439 H           1 PRO       0.0484
    127 H62         8.0885   24.7532   22.6955 H           1 PRO       0.0484
    128 H63        10.2605   27.8657   23.3411 H           1 PRO       0.2386
    129 H64         9.9613   23.8952   24.2890 H           1 PRO       0.0324
    130 H65        12.1908   27.2903   24.8078 H           1 PRO       0.1149
@<TRIPOS>BOND
     1     1     2   1
     2     1     7   1
     3     2     3   1
     4     2     5   1
     5     3     4   2
     6     3     8  am
     7     5     6   1
     8     6     7   1
     9     8     9   1
    10     9    10   1
    11     9    12   1
    12    10    11   2
    13    10    18  am
    14    12    13   1
    15    13    14   1
    16    13    15   2
    17    14    16   1
    18    15    17   1
    19    16    17   2
    20    18    19   1
    21    19    20   1
    22    19    22   1
    23    20    21   2
    24    20    26  am
    25    22    23   1
    26    23    24   1
    27    23    25   1
    28    26    27   1
    29    27    28   1
    30    27    30   1
    31    28    29   2
    32    28    32  am
    33    30    31   1
    34    32    33   1
    35    33    34   1
    36    33    41   1
    37    34    35   1
    38    35    36  ar
    39    35    37  ar
    40    36    38  ar
    41    37    39  ar
    42    38    40  ar
    43    39    40  ar
    44    41    42   1
    45    42    43   1
    46    43    44   1
    47    43    48   1
    48    44    45   1
    49    45    46   1
    50    46    47   1
    51    48    49   2
    52    48    50  am
    53    50    51   1
    54    51    52   1
    55    51    54   1
    56    52    53   2
    57    52    55  am
    58    55    56   1
    59    56    57   1
    60    56    59   1
    61    57    58  ar
    62    57    65  ar
    63    59    60   1
    64    60    61   1
    65    60    62   2
    66    61    63   1
    67    62    64   1
    68    63    64   2
    69     1    66   1
    70     1    67   1
    71     2    68   1
    72     5    69   1
    73     5    70   1
    74     6    71   1
    75     6    72   1
    76     7    73   1
    77     7    74   1
    78     8    75   1
    79     9    76   1
    80    12    77   1
    81    12    78   1
    82    14    79   1
    83    15    80   1
    84    16    81   1
    85    18    82   1
    86    19    83   1
    87    22    84   1
    88    22    85   1
    89    23    86   1
    90    24    87   1
    91    24    88   1
    92    24    89   1
    93    25    90   1
    94    25    91   1
    95    25    92   1
    96    26    93   1
    97    27    94   1
    98    30    95   1
    99    30    96   1
   100    31    97   1
   101    32    98   1
   102    33    99   1
   103    34   100   1
   104    34   101   1
   105    36   102   1
   106    37   103   1
   107    38   104   1
   108    39   105   1
   109    40   106   1
   110    41   107   1
   111    41   108   1
   112    42   109   1
   113    42   110   1
   114    43   111   1
   115    44   112   1
   116    44   113   1
   117    45   114   1
   118    45   115   1
   119    47   116   1
   120    47   117   1
   121    47   118   1
   122    50   119   1
   123    51   120   1
   124    54   121   1
   125    54   122   1
   126    54   123   1
   127    55   124   1
   128    56   125   1
   129    59   126   1
   130    59   127   1
   131    61   128   1
   132    62   129   1
   133    63   130   1
@<TRIPOS>SUBSTRUCTURE
     1  PRO      2

