@<TRIPOS>MOLECULE
3uri_ligand_061
   130   133
SMALL
GAST_HUCK
****
This file was generated by PARSER (from files_GN.cpp)

@<TRIPOS>ATOM
      1 N           7.8495   21.2018   24.3082 N.4         1 PRO       0.2461
      2 CA          6.5427   21.2852   24.9858 C.3         1 PRO       0.0670
      3 C           6.0452   22.6268   25.2593 C.2         1 PRO       0.2269
      4 O           5.4834   22.8040   26.3334 O.2         1 PRO      -0.3907
      5 CB          6.7797   20.4475   26.2601 C.3         1 PRO       0.0127
      6 CG          7.7092   19.3112   25.7963 C.3         1 PRO      -0.0053
      7 CD          8.3555   19.8329   24.4954 C.3         1 PRO      -0.0313
      8 N           6.1480   23.6110   24.3712 N.am        1 PRO      -0.2592
      9 CA          5.6608   24.9619   24.5028 C.3         1 PRO       0.1422
     10 C           5.4341   25.6156   23.2122 C.2         1 PRO       0.2060
     11 O           5.5821   26.8302   23.1605 O.2         1 PRO      -0.3942
     12 CB          6.6226   25.7667   25.4337 C.3         1 PRO       0.0427
     13 CG          7.9005   26.2420   24.8503 C.2         1 PRO       0.0561
     14 ND1         8.3743   26.0654   23.6073 N.pl3       1 PRO      -0.2623
     15 CD2         8.8642   26.9905   25.5214 C.2         1 PRO      -0.0276
     16 CE1         9.5657   26.6726   23.5106 C.2         1 PRO       0.0875
     17 NE2         9.8781   27.2484   24.6816 N.2         1 PRO      -0.3437
     18 N           5.0717   24.9369   22.1249 N.am        1 PRO      -0.2636
     19 CA          4.8758   25.4295   20.7844 C.3         1 PRO       0.1312
     20 C           5.8743   26.4170   20.3743 C.2         1 PRO       0.2040
     21 O           6.6657   26.8984   21.1766 O.2         1 PRO      -0.3944
     22 CB          3.4029   25.8957   20.5139 C.3         1 PRO      -0.0101
     23 CG          2.3377   24.7499   20.5033 C.3         1 PRO      -0.0425
     24 CD1         0.9029   25.3121   20.7081 C.3         1 PRO      -0.0625
     25 CD2         2.3873   23.9064   19.1953 C.3         1 PRO      -0.0625
     26 N           5.9764   26.7114   19.0851 N.am        1 PRO      -0.2616
     27 CA          6.9630   27.5464   18.4597 C.3         1 PRO       0.1538
     28 C           7.2553   28.7636   19.2147 C.2         1 PRO       0.2045
     29 O           8.3867   29.2284   19.1531 O.2         1 PRO      -0.3944
     30 CB          6.4842   27.8824   17.0180 C.3         1 PRO       0.0843
     31 OG          7.5684   28.0424   16.1148 O.3         1 PRO      -0.3903
     32 N           6.2853   29.3837   19.8794 N.am        1 PRO      -0.2748
     33 C1          6.3168   30.6695   20.5218 C.3         1 PRO       0.0911
     34 C2          7.2627   30.7595   21.7606 C.3         1 PRO       0.0089
     35 C3          6.6115   30.4443   23.0627 C.ar        1 PRO      -0.0406
     36 C4          7.1974   29.5299   23.9680 C.ar        1 PRO      -0.0603
     37 C5          5.4401   31.1341   23.4634 C.ar        1 PRO      -0.0603
     38 C6          6.6476   29.3329   25.2481 C.ar        1 PRO      -0.0686
     39 C7          4.8742   30.9179   24.7335 C.ar        1 PRO      -0.0686
     40 C8          5.4838   30.0237   25.6304 C.ar        1 PRO      -0.0687
     41 C9          6.5832   31.8150   19.5068 C.3         1 PRO      -0.0062
     42 N2          5.6338   31.7167   18.3746 N.4         1 PRO       0.2479
     43 C10         5.6027   32.8590   17.4252 C.3         1 PRO       0.0676
     44 C11         6.7594   32.7248   16.3884 C.3         1 PRO       0.0169
     45 C12         6.9749   33.9471   15.4565 C.3         1 PRO       0.0007
     46 SD          5.6794   34.2604   14.2274 S.3         1 PRO      -0.1638
     47 C13         5.7922   32.7423   13.2521 C.3         1 PRO      -0.0181
     48 C           4.2508   32.9049   16.8798 C.2         1 PRO       0.2268
     49 O           3.5038   33.7886   17.2841 O.2         1 PRO      -0.3907
     50 N           3.7976   31.9420   16.0805 N.am        1 PRO      -0.2613
     51 CA          2.5139   31.8492   15.4321 C.3         1 PRO       0.1283
     52 C           2.2693   32.9817   14.5386 C.2         1 PRO       0.2032
     53 O           2.3315   34.1074   15.0076 O.2         1 PRO      -0.3944
     54 CB          1.3513   31.6053   16.4321 C.3         1 PRO      -0.0244
     55 N           2.0082   32.7968   13.2485 N.am        1 PRO      -0.2677
     56 CA          1.8588   33.7557   12.1789 C.3         1 PRO       0.1056
     57 C           2.0832   35.1959   12.4798 C.2         1 PRO       0.0621
     58 O           1.1357   35.9537   13.0796 O.co2       1 PRO      -0.5664
     59 CB          0.5225   33.5146   11.4177 C.3         1 PRO       0.0372
     60 CG         -0.7012   33.8391   12.1840 C.2         1 PRO       0.0555
     61 ND1        -1.6459   34.7123   11.8104 N.pl3       1 PRO      -0.2623
     62 CD2        -1.1029   33.3370   13.4186 C.2         1 PRO      -0.0276
     63 CE1        -2.5850   34.7603   12.7661 C.2         1 PRO       0.0875
     64 NE2        -2.2603   33.9217   13.7635 N.2         1 PRO      -0.3437
     65 OXT         3.3185   35.7316   12.3593 O.co2       1 PRO      -0.5664
     66 H1          8.5046   21.8534   24.7455 H           1 PRO       0.2035
     67 H2          7.7514   21.4226   23.3157 H           1 PRO       0.2035
     68 H3          5.8059   20.7776   24.3507 H           1 PRO       0.1099
     69 H4          5.8422   20.0606   26.6686 H           1 PRO       0.0347
     70 H5          7.2845   21.0465   27.0255 H           1 PRO       0.0347
     71 H6          7.1308   18.4044   25.5970 H           1 PRO       0.0320
     72 H7          8.4632   19.0902   26.5566 H           1 PRO       0.0320
     73 H8          9.4451   19.8454   24.5676 H           1 PRO       0.0814
     74 H9          8.0617   19.2161   23.6412 H           1 PRO       0.0814
     75 H10         6.5663   23.3925   23.5249 H           1 PRO       0.1886
     76 H11         4.6893   24.9549   25.0079 H           1 PRO       0.0824
     77 H12         6.8625   25.1569   26.3089 H           1 PRO       0.0491
     78 H13         6.0811   26.6408   25.8031 H           1 PRO       0.0491
     79 H14         7.9338   25.5815   22.8910 H           1 PRO       0.2386
     80 H15         8.8109   27.3088   26.4906 H           1 PRO       0.0324
     81 H16        10.1493   26.6926   22.6739 H           1 PRO       0.1149
     82 H17         4.9470   23.9808   22.2368 H           1 PRO       0.1883
     83 H18         5.0625   24.5628   20.1469 H           1 PRO       0.0800
     84 H19         3.3408   26.4153   19.5534 H           1 PRO       0.0315
     85 H20         3.1363   26.6359   21.2712 H           1 PRO       0.0315
     86 H21         2.5368   24.0761   21.3427 H           1 PRO       0.0298
     87 H22         0.1712   24.5022   20.7115 H           1 PRO       0.0232
     88 H23         0.6456   26.0134   19.9111 H           1 PRO       0.0232
     89 H24         0.8337   25.8319   21.6659 H           1 PRO       0.0232
     90 H25         3.3807   23.4899   19.0340 H           1 PRO       0.0232
     91 H26         2.1296   24.5212   18.3299 H           1 PRO       0.0232
     92 H27         1.6810   23.0763   19.2548 H           1 PRO       0.0232
     93 H28         5.3433   26.2737   18.4926 H           1 PRO       0.1884
     94 H29         7.8749   26.9447   18.3740 H           1 PRO       0.0823
     95 H30         5.8709   28.7865   17.0034 H           1 PRO       0.0606
     96 H31         5.8788   27.0626   16.6225 H           1 PRO       0.0606
     97 H32         8.0754   28.8167   16.4426 H           1 PRO       0.2097
     98 H33         5.4190   28.9457   19.8733 H           1 PRO       0.1859
     99 H34         5.2957   30.8336   20.8796 H           1 PRO       0.0632
    100 H35         7.6517   31.7783   21.8518 H           1 PRO       0.0450
    101 H36         8.1311   30.1188   21.5903 H           1 PRO       0.0450
    102 H37         8.0413   29.0159   23.7092 H           1 PRO       0.0557
    103 H38         5.0038   31.8209   22.8424 H           1 PRO       0.0557
    104 H39         7.1003   28.6955   25.9052 H           1 PRO       0.0599
    105 H40         4.0342   31.4296   25.0133 H           1 PRO       0.0599
    106 H41         5.0868   29.8821   26.5615 H           1 PRO       0.0559
    107 H42         7.6109   31.7813   19.1392 H           1 PRO       0.0839
    108 H43         6.4329   32.7691   20.0216 H           1 PRO       0.0839
    109 H44         4.7050   31.6334   18.7872 H           1 PRO       0.2036
    110 H45         5.8233   30.8545   17.8581 H           1 PRO       0.2036
    111 H46         5.7786   33.7960   17.9697 H           1 PRO       0.1099
    112 H47         6.6357   31.8188   15.7936 H           1 PRO       0.0354
    113 H48         7.6888   32.5973   16.9505 H           1 PRO       0.0354
    114 H49         7.9226   33.8230   14.9293 H           1 PRO       0.0380
    115 H50         7.0675   34.8460   16.0688 H           1 PRO       0.0380
    116 H51         5.3215   32.9108   12.2836 H           1 PRO       0.0340
    117 H52         5.2717   31.9298   13.7566 H           1 PRO       0.0340
    118 H53         6.8317   32.4601   13.0956 H           1 PRO       0.0340
    119 H54         4.4236   31.2278   15.8741 H           1 PRO       0.1884
    120 H55         2.5735   30.9395   14.8280 H           1 PRO       0.0797
    121 H56         0.4278   31.3857   15.8921 H           1 PRO       0.0277
    122 H57         1.1793   32.4745   17.0681 H           1 PRO       0.0277
    123 H58         1.5839   30.7501   17.0700 H           1 PRO       0.0277
    124 H59         1.9328   31.8672   12.9748 H           1 PRO       0.1877
    125 H60         2.6497   33.4862   11.4757 H           1 PRO       0.0750
    126 H61         0.4643   32.4673   11.1086 H           1 PRO       0.0484
    127 H62         0.5335   34.1158   10.5038 H           1 PRO       0.0484
    128 H63        -1.6462   35.2309   10.9910 H           1 PRO       0.2386
    129 H64        -0.6101   32.6395   13.9762 H           1 PRO       0.0324
    130 H65        -3.4223   35.3434   12.7376 H           1 PRO       0.1149
@<TRIPOS>BOND
     1     1     2   1
     2     1     7   1
     3     2     3   1
     4     2     5   1
     5     3     4   2
     6     3     8  am
     7     5     6   1
     8     6     7   1
     9     8     9   1
    10     9    10   1
    11     9    12   1
    12    10    11   2
    13    10    18  am
    14    12    13   1
    15    13    14   1
    16    13    15   2
    17    14    16   1
    18    15    17   1
    19    16    17   2
    20    18    19   1
    21    19    20   1
    22    19    22   1
    23    20    21   2
    24    20    26  am
    25    22    23   1
    26    23    24   1
    27    23    25   1
    28    26    27   1
    29    27    28   1
    30    27    30   1
    31    28    29   2
    32    28    32  am
    33    30    31   1
    34    32    33   1
    35    33    34   1
    36    33    41   1
    37    34    35   1
    38    35    36  ar
    39    35    37  ar
    40    36    38  ar
    41    37    39  ar
    42    38    40  ar
    43    39    40  ar
    44    41    42   1
    45    42    43   1
    46    43    44   1
    47    43    48   1
    48    44    45   1
    49    45    46   1
    50    46    47   1
    51    48    49   2
    52    48    50  am
    53    50    51   1
    54    51    52   1
    55    51    54   1
    56    52    53   2
    57    52    55  am
    58    55    56   1
    59    56    57   1
    60    56    59   1
    61    57    58  ar
    62    57    65  ar
    63    59    60   1
    64    60    61   1
    65    60    62   2
    66    61    63   1
    67    62    64   1
    68    63    64   2
    69     1    66   1
    70     1    67   1
    71     2    68   1
    72     5    69   1
    73     5    70   1
    74     6    71   1
    75     6    72   1
    76     7    73   1
    77     7    74   1
    78     8    75   1
    79     9    76   1
    80    12    77   1
    81    12    78   1
    82    14    79   1
    83    15    80   1
    84    16    81   1
    85    18    82   1
    86    19    83   1
    87    22    84   1
    88    22    85   1
    89    23    86   1
    90    24    87   1
    91    24    88   1
    92    24    89   1
    93    25    90   1
    94    25    91   1
    95    25    92   1
    96    26    93   1
    97    27    94   1
    98    30    95   1
    99    30    96   1
   100    31    97   1
   101    32    98   1
   102    33    99   1
   103    34   100   1
   104    34   101   1
   105    36   102   1
   106    37   103   1
   107    38   104   1
   108    39   105   1
   109    40   106   1
   110    41   107   1
   111    41   108   1
   112    42   109   1
   113    42   110   1
   114    43   111   1
   115    44   112   1
   116    44   113   1
   117    45   114   1
   118    45   115   1
   119    47   116   1
   120    47   117   1
   121    47   118   1
   122    50   119   1
   123    51   120   1
   124    54   121   1
   125    54   122   1
   126    54   123   1
   127    55   124   1
   128    56   125   1
   129    59   126   1
   130    59   127   1
   131    61   128   1
   132    62   129   1
   133    63   130   1
@<TRIPOS>SUBSTRUCTURE
     1  PRO      2

