@<TRIPOS>MOLECULE
3uri_ligand_068
   130   133
SMALL
GAST_HUCK
****
This file was generated by PARSER (from files_GN.cpp)

@<TRIPOS>ATOM
      1 N           0.1696   29.8819   18.7825 N.4         1 PRO       0.2461
      2 CA          0.8159   28.6360   18.3287 C.3         1 PRO       0.0670
      3 C           2.1362   28.8984   17.7814 C.2         1 PRO       0.2269
      4 O           2.3169   28.8891   16.5659 O.2         1 PRO      -0.3907
      5 CB         -0.2392   28.0224   17.3839 C.3         1 PRO       0.0127
      6 CG         -1.5613   28.3288   18.1037 C.3         1 PRO      -0.0053
      7 CD         -1.2830   29.6492   18.8549 C.3         1 PRO      -0.0313
      8 N           3.1299   29.1759   18.6219 N.am        1 PRO      -0.2592
      9 CA          4.4848   29.5376   18.2849 C.3         1 PRO       0.1422
     10 C           4.5644   30.8201   17.5701 C.2         1 PRO       0.2060
     11 O           3.5447   31.4111   17.2288 O.2         1 PRO      -0.3942
     12 CB          5.2182   28.3345   17.5776 C.3         1 PRO       0.0427
     13 CG          5.9215   27.4437   18.5255 C.2         1 PRO       0.0561
     14 ND1         7.2480   27.2612   18.5922 N.pl3       1 PRO      -0.2623
     15 CD2         5.3661   26.6245   19.5037 C.2         1 PRO      -0.0276
     16 CE1         7.5080   26.3861   19.5747 C.2         1 PRO       0.0875
     17 NE2         6.3574   25.9826   20.1416 N.2         1 PRO      -0.3437
     18 N           5.7470   31.3699   17.3090 N.am        1 PRO      -0.2636
     19 CA          6.0140   32.5624   16.5442 C.3         1 PRO       0.1312
     20 C           5.2520   32.6582   15.2943 C.2         1 PRO       0.2040
     21 O           4.5264   31.7325   14.9416 O.2         1 PRO      -0.3944
     22 CB          7.5615   32.6352   16.2809 C.3         1 PRO      -0.0101
     23 CG          8.4359   33.2564   17.4194 C.3         1 PRO      -0.0425
     24 CD1         8.1252   34.7643   17.6396 C.3         1 PRO      -0.0625
     25 CD2         8.3792   32.4618   18.7507 C.3         1 PRO      -0.0625
     26 N           5.3254   33.7783   14.5786 N.am        1 PRO      -0.2616
     27 CA          4.7246   34.0682   13.3061 C.3         1 PRO       0.1538
     28 C           3.2826   34.2694   13.4228 C.2         1 PRO       0.2045
     29 O           2.9101   35.1216   14.2189 O.2         1 PRO      -0.3944
     30 CB          5.2249   33.0707   12.2219 C.3         1 PRO       0.0843
     31 OG          4.7839   31.7375   12.4658 O.3         1 PRO      -0.3903
     32 N           2.3972   33.6448   12.6527 N.am        1 PRO      -0.2748
     33 C1          0.9755   33.8795   12.5753 C.3         1 PRO       0.0911
     34 C2          0.6662   34.4779   11.1629 C.3         1 PRO       0.0089
     35 C3          1.0592   35.9142   11.0323 C.ar        1 PRO      -0.0406
     36 C4          0.0745   36.9321   10.9724 C.ar        1 PRO      -0.0603
     37 C5          2.4223   36.2940   10.9872 C.ar        1 PRO      -0.0603
     38 C6          0.4422   38.2865   10.8699 C.ar        1 PRO      -0.0686
     39 C7          2.7915   37.6519   10.8956 C.ar        1 PRO      -0.0686
     40 C8          1.7999   38.6457   10.8353 C.ar        1 PRO      -0.0687
     41 C9          0.2103   32.5458   12.8745 C.3         1 PRO      -0.0062
     42 N2         -0.3658   32.4799   14.2490 N.4         1 PRO       0.2479
     43 C10        -1.8396   32.6610   14.4120 C.3         1 PRO       0.0676
     44 C11        -2.2625   32.1766   15.8405 C.3         1 PRO       0.0169
     45 C12        -3.7194   32.5407   16.2592 C.3         1 PRO       0.0007
     46 SD         -4.4662   31.3067   17.3637 S.3         1 PRO      -0.1638
     47 C13        -6.1814   31.8878   17.2346 C.3         1 PRO      -0.0181
     48 C          -2.2825   34.0045   14.0395 C.2         1 PRO       0.2268
     49 O          -2.4921   34.2211   12.8525 O.2         1 PRO      -0.3907
     50 N          -2.5306   34.9508   14.9357 N.am        1 PRO      -0.2613
     51 CA         -3.1444   36.2325   14.7102 C.3         1 PRO       0.1283
     52 C          -3.1447   36.9762   15.9651 C.2         1 PRO       0.2032
     53 O          -2.4595   37.9914   16.0531 O.2         1 PRO      -0.3944
     54 CB         -4.5961   36.1082   14.1582 C.3         1 PRO      -0.0244
     55 N          -3.8858   36.5545   16.9846 N.am        1 PRO      -0.2677
     56 CA         -4.0324   37.1609   18.2773 C.3         1 PRO       0.1056
     57 C          -3.6296   36.1666   19.2938 C.2         1 PRO       0.0621
     58 O          -2.4176   36.2371   19.8906 O.co2       1 PRO      -0.5664
     59 CB         -5.5009   37.6233   18.4977 C.3         1 PRO       0.0372
     60 CG         -5.9201   38.6942   17.5698 C.2         1 PRO       0.0555
     61 ND1        -6.9016   38.6093   16.6614 N.pl3       1 PRO      -0.2623
     62 CD2        -5.3978   39.9795   17.4615 C.2         1 PRO      -0.0276
     63 CE1        -6.9809   39.7795   16.0121 C.2         1 PRO       0.0875
     64 NE2        -6.0615   40.6325   16.4946 N.2         1 PRO      -0.3437
     65 OXT        -4.4397   35.1292   19.6130 O.co2       1 PRO      -0.5664
     66 H1          0.3466   30.6261   18.0993 H           1 PRO       0.2035
     67 H2          0.5321   30.1664   19.6964 H           1 PRO       0.2035
     68 H3          0.9328   27.9716   19.1882 H           1 PRO       0.1099
     69 H4         -0.0832   26.9496   17.2507 H           1 PRO       0.0347
     70 H5         -0.2345   28.5143   16.4053 H           1 PRO       0.0347
     71 H6         -1.7909   27.5310   18.8191 H           1 PRO       0.0320
     72 H7         -2.3911   28.4201   17.3937 H           1 PRO       0.0320
     73 H8         -1.8008   30.4892   18.3837 H           1 PRO       0.0814
     74 H9         -1.6002   29.5757   19.8983 H           1 PRO       0.0814
     75 H10         2.9109   29.1700   19.5684 H           1 PRO       0.1886
     76 H11         4.9936   29.7256   19.2337 H           1 PRO       0.0824
     77 H12         5.9647   28.6931   16.8639 H           1 PRO       0.0491
     78 H13         4.5163   27.7287   17.0018 H           1 PRO       0.0491
     79 H14         7.9101   27.6986   18.0313 H           1 PRO       0.2386
     80 H15         4.3729   26.5259   19.7167 H           1 PRO       0.0324
     81 H16         8.4428   26.0694   19.8436 H           1 PRO       0.1149
     82 H17         6.5235   30.8932   17.6468 H           1 PRO       0.1883
     83 H18         5.7040   33.4122   17.1562 H           1 PRO       0.0800
     84 H19         7.7737   33.2152   15.3749 H           1 PRO       0.0315
     85 H20         7.9273   31.6216   16.0659 H           1 PRO       0.0315
     86 H21         9.4720   33.1983   17.0644 H           1 PRO       0.0298
     87 H22         8.9237   35.2257   18.2203 H           1 PRO       0.0232
     88 H23         7.1890   34.8954   18.1807 H           1 PRO       0.0232
     89 H24         8.0525   35.2900   16.6846 H           1 PRO       0.0232
     90 H25         8.6212   31.4119   18.5775 H           1 PRO       0.0232
     91 H26         7.3870   32.5242   19.1981 H           1 PRO       0.0232
     92 H27         9.1018   32.8682   19.4574 H           1 PRO       0.0232
     93 H28         5.8847   34.4819   14.9474 H           1 PRO       0.1884
     94 H29         5.1368   35.0373   13.0073 H           1 PRO       0.0823
     95 H30         6.3162   33.0689   12.2178 H           1 PRO       0.0606
     96 H31         4.8838   33.3750   11.2293 H           1 PRO       0.0606
     97 H32         5.5503   31.1670   12.2330 H           1 PRO       0.2097
     98 H33         2.7438   32.9900   12.0286 H           1 PRO       0.1859
     99 H34         0.6544   34.6249   13.3137 H           1 PRO       0.0632
    100 H35        -0.4042   34.3888   10.9621 H           1 PRO       0.0450
    101 H36         1.1679   33.8940   10.3878 H           1 PRO       0.0450
    102 H37        -0.9204   36.6949   11.0067 H           1 PRO       0.0557
    103 H38         3.1562   35.5827   11.0128 H           1 PRO       0.0557
    104 H39        -0.2766   39.0114   10.8266 H           1 PRO       0.0599
    105 H40         3.7792   37.9091   10.8698 H           1 PRO       0.0599
    106 H41         2.0701   39.6292   10.7651 H           1 PRO       0.0559
    107 H42         0.8950   31.7002   12.7716 H           1 PRO       0.0839
    108 H43        -0.5746   32.3744   12.1354 H           1 PRO       0.0839
    109 H44         0.1173   33.1554   14.8422 H           1 PRO       0.2036
    110 H45        -0.1422   31.5487   14.6067 H           1 PRO       0.2036
    111 H46        -2.3266   31.9495   13.7365 H           1 PRO       0.1099
    112 H47        -1.5703   32.5758   16.5908 H           1 PRO       0.0354
    113 H48        -2.1622   31.0836   15.8596 H           1 PRO       0.0354
    114 H49        -4.3445   32.6314   15.3701 H           1 PRO       0.0380
    115 H50        -3.7239   33.5018   16.7806 H           1 PRO       0.0380
    116 H51        -6.8296   31.1959   17.7863 H           1 PRO       0.0340
    117 H52        -6.5053   31.9134   16.1868 H           1 PRO       0.0340
    118 H53        -6.2775   32.8888   17.6740 H           1 PRO       0.0340
    119 H54        -2.3076   34.7416   15.8567 H           1 PRO       0.1884
    120 H55        -2.5491   36.7676   13.9635 H           1 PRO       0.0797
    121 H56        -5.0710   37.0931   14.0990 H           1 PRO       0.0277
    122 H57        -5.2043   35.4629   14.8020 H           1 PRO       0.0277
    123 H58        -4.5930   35.6802   13.1518 H           1 PRO       0.0277
    124 H59        -4.4046   35.7492   16.8338 H           1 PRO       0.1877
    125 H60        -3.3815   38.0361   18.3858 H           1 PRO       0.0750
    126 H61        -5.6185   37.9964   19.5196 H           1 PRO       0.0484
    127 H62        -6.1759   36.7701   18.3760 H           1 PRO       0.0484
    128 H63        -7.4584   37.8306   16.4987 H           1 PRO       0.2386
    129 H64        -4.6356   40.3696   18.0156 H           1 PRO       0.0324
    130 H65        -7.6449   39.9912   15.2644 H           1 PRO       0.1149
@<TRIPOS>BOND
     1     1     2   1
     2     1     7   1
     3     2     3   1
     4     2     5   1
     5     3     4   2
     6     3     8  am
     7     5     6   1
     8     6     7   1
     9     8     9   1
    10     9    10   1
    11     9    12   1
    12    10    11   2
    13    10    18  am
    14    12    13   1
    15    13    14   1
    16    13    15   2
    17    14    16   1
    18    15    17   1
    19    16    17   2
    20    18    19   1
    21    19    20   1
    22    19    22   1
    23    20    21   2
    24    20    26  am
    25    22    23   1
    26    23    24   1
    27    23    25   1
    28    26    27   1
    29    27    28   1
    30    27    30   1
    31    28    29   2
    32    28    32  am
    33    30    31   1
    34    32    33   1
    35    33    34   1
    36    33    41   1
    37    34    35   1
    38    35    36  ar
    39    35    37  ar
    40    36    38  ar
    41    37    39  ar
    42    38    40  ar
    43    39    40  ar
    44    41    42   1
    45    42    43   1
    46    43    44   1
    47    43    48   1
    48    44    45   1
    49    45    46   1
    50    46    47   1
    51    48    49   2
    52    48    50  am
    53    50    51   1
    54    51    52   1
    55    51    54   1
    56    52    53   2
    57    52    55  am
    58    55    56   1
    59    56    57   1
    60    56    59   1
    61    57    58  ar
    62    57    65  ar
    63    59    60   1
    64    60    61   1
    65    60    62   2
    66    61    63   1
    67    62    64   1
    68    63    64   2
    69     1    66   1
    70     1    67   1
    71     2    68   1
    72     5    69   1
    73     5    70   1
    74     6    71   1
    75     6    72   1
    76     7    73   1
    77     7    74   1
    78     8    75   1
    79     9    76   1
    80    12    77   1
    81    12    78   1
    82    14    79   1
    83    15    80   1
    84    16    81   1
    85    18    82   1
    86    19    83   1
    87    22    84   1
    88    22    85   1
    89    23    86   1
    90    24    87   1
    91    24    88   1
    92    24    89   1
    93    25    90   1
    94    25    91   1
    95    25    92   1
    96    26    93   1
    97    27    94   1
    98    30    95   1
    99    30    96   1
   100    31    97   1
   101    32    98   1
   102    33    99   1
   103    34   100   1
   104    34   101   1
   105    36   102   1
   106    37   103   1
   107    38   104   1
   108    39   105   1
   109    40   106   1
   110    41   107   1
   111    41   108   1
   112    42   109   1
   113    42   110   1
   114    43   111   1
   115    44   112   1
   116    44   113   1
   117    45   114   1
   118    45   115   1
   119    47   116   1
   120    47   117   1
   121    47   118   1
   122    50   119   1
   123    51   120   1
   124    54   121   1
   125    54   122   1
   126    54   123   1
   127    55   124   1
   128    56   125   1
   129    59   126   1
   130    59   127   1
   131    61   128   1
   132    62   129   1
   133    63   130   1
@<TRIPOS>SUBSTRUCTURE
     1  PRO      2

