@<TRIPOS>MOLECULE
3uri_ligand_020
   130   133
SMALL
GAST_HUCK
****
This file was generated by PARSER (from files_GN.cpp)

@<TRIPOS>ATOM
      1 N           8.1657   31.0465   16.4819 N.4         1 PRO       0.2461
      2 CA          7.5810   31.1442   17.8355 C.3         1 PRO       0.0670
      3 C           6.6624   30.0839   18.2241 C.2         1 PRO       0.2269
      4 O           6.4208   29.9702   19.4195 O.2         1 PRO      -0.3907
      5 CB          6.9214   32.5412   17.8206 C.3         1 PRO       0.0127
      6 CG          7.8911   33.3995   16.9920 C.3         1 PRO      -0.0053
      7 CD          8.6472   32.3860   16.1021 C.3         1 PRO      -0.0313
      8 N           6.1082   29.2764   17.3225 N.am        1 PRO      -0.2592
      9 CA          5.0539   28.2974   17.4786 C.3         1 PRO       0.1422
     10 C           3.8282   28.8760   16.9402 C.2         1 PRO       0.2060
     11 O           3.1559   28.2125   16.1550 O.2         1 PRO      -0.3942
     12 CB          4.8150   27.6531   18.8818 C.3         1 PRO       0.0427
     13 CG          5.9967   27.0531   19.5433 C.2         1 PRO       0.0561
     14 ND1         5.9569   26.4390   20.7379 N.pl3       1 PRO      -0.2623
     15 CD2         7.3182   26.9506   19.1150 C.2         1 PRO      -0.0276
     16 CE1         7.1860   25.9940   21.0373 C.2         1 PRO       0.0875
     17 NE2         8.0332   26.3004   20.0415 N.2         1 PRO      -0.3437
     18 N           3.4977   30.1197   17.2707 N.am        1 PRO      -0.2636
     19 CA          2.4680   30.9391   16.6945 C.3         1 PRO       0.1312
     20 C           3.1322   32.1249   16.1354 C.2         1 PRO       0.2040
     21 O           2.9807   33.2310   16.6506 O.2         1 PRO      -0.3944
     22 CB          1.3268   31.2055   17.7451 C.3         1 PRO      -0.0101
     23 CG         -0.1054   30.6474   17.3841 C.3         1 PRO      -0.0425
     24 CD1        -0.6381   29.6547   18.4538 C.3         1 PRO      -0.0625
     25 CD2        -1.1345   31.7921   17.1471 C.3         1 PRO      -0.0625
     26 N           3.9447   31.9742   15.0916 N.am        1 PRO      -0.2616
     27 CA          4.6647   33.0070   14.3934 C.3         1 PRO       0.1538
     28 C           3.7921   34.1250   14.0165 C.2         1 PRO       0.2045
     29 O           3.5591   34.9627   14.8765 O.2         1 PRO      -0.3944
     30 CB          5.4490   32.3734   13.2140 C.3         1 PRO       0.0843
     31 OG          5.2609   33.1199   12.0088 O.3         1 PRO      -0.3903
     32 N           3.3230   34.2944   12.7778 N.am        1 PRO      -0.2748
     33 C1          2.5952   35.4492   12.3184 C.3         1 PRO       0.0911
     34 C2          3.5622   36.6736   12.1982 C.3         1 PRO       0.0089
     35 C3          2.8940   37.9261   11.7576 C.ar        1 PRO      -0.0406
     36 C4          2.1713   38.7113   12.6883 C.ar        1 PRO      -0.0603
     37 C5          2.9628   38.3688   10.4100 C.ar        1 PRO      -0.0603
     38 C6          1.5322   39.8926   12.2906 C.ar        1 PRO      -0.0686
     39 C7          2.3195   39.5481   10.0084 C.ar        1 PRO      -0.0686
     40 C8          1.5976   40.3146   10.9432 C.ar        1 PRO      -0.0687
     41 C9          1.8819   35.1527   10.9603 C.3         1 PRO      -0.0062
     42 N2          0.9892   33.9631   10.8707 N.4         1 PRO       0.2479
     43 C10        -0.1515   33.7349   11.8167 C.3         1 PRO       0.0676
     44 C11         0.2792   33.2055   13.2252 C.3         1 PRO       0.0169
     45 C12         1.1509   31.9137   13.2270 C.3         1 PRO       0.0007
     46 SD          0.4202   30.4771   12.3925 S.3         1 PRO      -0.1638
     47 C13        -0.2829   29.6194   13.8181 C.3         1 PRO      -0.0181
     48 C          -1.0705   34.8786   11.9286 C.2         1 PRO       0.2268
     49 O          -0.6320   35.9590   12.2983 O.2         1 PRO      -0.3907
     50 N          -2.3669   34.7596   11.6582 N.am        1 PRO      -0.2613
     51 CA         -3.3526   35.8170   11.6679 C.3         1 PRO       0.1283
     52 C          -2.9915   36.9953   10.8773 C.2         1 PRO       0.2032
     53 O          -1.8779   37.1016   10.3740 O.2         1 PRO      -0.3944
     54 CB         -3.7699   36.1840   13.1197 C.3         1 PRO      -0.0244
     55 N          -3.9035   37.9391   10.6550 N.am        1 PRO      -0.2677
     56 CA         -3.7251   39.1597    9.9133 C.3         1 PRO       0.1056
     57 C          -4.8276   40.0993   10.2551 C.2         1 PRO       0.0621
     58 O          -6.1211   39.7071   10.1819 O.co2       1 PRO      -0.5664
     59 CB         -3.6272   38.9273    8.3754 C.3         1 PRO       0.0372
     60 CG         -4.9183   38.6940    7.6895 C.2         1 PRO       0.0555
     61 ND1        -5.7123   39.6314    7.1458 N.pl3       1 PRO      -0.2623
     62 CD2        -5.5588   37.4734    7.4634 C.2         1 PRO      -0.0276
     63 CE1        -6.7833   39.0271    6.6137 C.2         1 PRO       0.0875
     64 NE2        -6.7031   37.6976    6.7984 N.2         1 PRO      -0.3437
     65 OXT        -4.5542   41.3527   10.6805 O.co2       1 PRO      -0.5664
     66 H1          7.4521   30.7494   15.8082 H           1 PRO       0.2035
     67 H2          8.9492   30.3901   16.4797 H           1 PRO       0.2035
     68 H3          8.4078   31.1419   18.5548 H           1 PRO       0.1099
     69 H4          6.7929   32.9458   18.8278 H           1 PRO       0.0347
     70 H5          5.9486   32.5003   17.3216 H           1 PRO       0.0347
     71 H6          8.5967   33.9151   17.6533 H           1 PRO       0.0320
     72 H7          7.3574   34.1443   16.3919 H           1 PRO       0.0320
     73 H8          8.4555   32.5652   15.0379 H           1 PRO       0.0814
     74 H9          9.7284   32.4515   16.2785 H           1 PRO       0.0814
     75 H10         6.3171   29.4755   16.3977 H           1 PRO       0.1886
     76 H11         5.3557   27.4676   16.8211 H           1 PRO       0.0824
     77 H12         4.0784   26.8517   18.7750 H           1 PRO       0.0491
     78 H13         4.3843   28.3876   19.5643 H           1 PRO       0.0491
     79 H14         5.1667   26.3361   21.2933 H           1 PRO       0.2386
     80 H15         7.6965   27.3020   18.2335 H           1 PRO       0.0324
     81 H16         7.4362   25.4908   21.8920 H           1 PRO       0.1149
     82 H17         4.0545   30.5511   17.9323 H           1 PRO       0.1883
     83 H18         2.0275   30.4136   15.8427 H           1 PRO       0.0800
     84 H19         1.2280   32.2779   17.9177 H           1 PRO       0.0315
     85 H20         1.6377   30.8078   18.7145 H           1 PRO       0.0315
     86 H21        -0.0631   30.0811   16.4476 H           1 PRO       0.0298
     87 H22        -1.6063   29.2479   18.1478 H           1 PRO       0.0232
     88 H23        -0.7552   30.1606   19.4153 H           1 PRO       0.0232
     89 H24         0.0622   28.8226   18.5739 H           1 PRO       0.0232
     90 H25        -0.7846   32.4557   16.3523 H           1 PRO       0.0232
     91 H26        -1.2667   32.3782   18.0588 H           1 PRO       0.0232
     92 H27        -2.1016   31.3806   16.8498 H           1 PRO       0.0232
     93 H28         4.0686   31.0628   14.7764 H           1 PRO       0.1884
     94 H29         5.4308   33.3949   15.0662 H           1 PRO       0.0823
     95 H30         5.1125   31.3554   13.0153 H           1 PRO       0.0606
     96 H31         6.5164   32.3423   13.4449 H           1 PRO       0.0606
     97 H32         6.0564   32.9356   11.4580 H           1 PRO       0.2097
     98 H33         3.4831   33.5800   12.1216 H           1 PRO       0.1859
     99 H34         1.8270   35.6770   13.0618 H           1 PRO       0.0632
    100 H35         4.3692   36.4055   11.5087 H           1 PRO       0.0450
    101 H36         4.0317   36.8726   13.1641 H           1 PRO       0.0450
    102 H37         2.1078   38.4194   13.6704 H           1 PRO       0.0557
    103 H38         3.4794   37.8251    9.7141 H           1 PRO       0.0557
    104 H39         1.0081   40.4486   12.9704 H           1 PRO       0.0599
    105 H40         2.3683   39.8582    9.0286 H           1 PRO       0.0599
    106 H41         1.1324   41.1757   10.6546 H           1 PRO       0.0559
    107 H42         2.6505   35.0145   10.1921 H           1 PRO       0.0839
    108 H43         1.2877   36.0262   10.6676 H           1 PRO       0.0839
    109 H44         1.5943   33.1282   10.8456 H           1 PRO       0.2036
    110 H45         0.5581   34.0375    9.9427 H           1 PRO       0.2036
    111 H46        -0.7119   32.9135   11.3561 H           1 PRO       0.1099
    112 H47        -0.6279   33.0094   13.8155 H           1 PRO       0.0354
    113 H48         0.8399   33.9915   13.7483 H           1 PRO       0.0354
    114 H49         1.3748   31.6590   14.2604 H           1 PRO       0.0380
    115 H50         2.0991   32.1182   12.7286 H           1 PRO       0.0380
    116 H51        -0.8415   28.7550   13.4592 H           1 PRO       0.0340
    117 H52        -0.9594   30.2756   14.3745 H           1 PRO       0.0340
    118 H53         0.5212   29.2711   14.4711 H           1 PRO       0.0340
    119 H54        -2.6774   33.8751   11.4062 H           1 PRO       0.1884
    120 H55        -4.2410   35.3957   11.1950 H           1 PRO       0.0797
    121 H56        -4.7025   36.7550   13.1179 H           1 PRO       0.0277
    122 H57        -3.0069   36.7874   13.6166 H           1 PRO       0.0277
    123 H58        -3.9342   35.2778   13.7063 H           1 PRO       0.0277
    124 H59        -4.7846   37.8130   11.0505 H           1 PRO       0.1877
    125 H60        -2.7917   39.6420   10.2264 H           1 PRO       0.0750
    126 H61        -2.9844   38.0617    8.1852 H           1 PRO       0.0484
    127 H62        -3.1421   39.7971    7.9154 H           1 PRO       0.0484
    128 H63        -5.5351   40.5875    7.1342 H           1 PRO       0.2386
    129 H64        -5.2160   36.5506    7.7442 H           1 PRO       0.0324
    130 H65        -7.5510   39.5047    6.1355 H           1 PRO       0.1149
@<TRIPOS>BOND
     1     1     2   1
     2     1     7   1
     3     2     3   1
     4     2     5   1
     5     3     4   2
     6     3     8  am
     7     5     6   1
     8     6     7   1
     9     8     9   1
    10     9    10   1
    11     9    12   1
    12    10    11   2
    13    10    18  am
    14    12    13   1
    15    13    14   1
    16    13    15   2
    17    14    16   1
    18    15    17   1
    19    16    17   2
    20    18    19   1
    21    19    20   1
    22    19    22   1
    23    20    21   2
    24    20    26  am
    25    22    23   1
    26    23    24   1
    27    23    25   1
    28    26    27   1
    29    27    28   1
    30    27    30   1
    31    28    29   2
    32    28    32  am
    33    30    31   1
    34    32    33   1
    35    33    34   1
    36    33    41   1
    37    34    35   1
    38    35    36  ar
    39    35    37  ar
    40    36    38  ar
    41    37    39  ar
    42    38    40  ar
    43    39    40  ar
    44    41    42   1
    45    42    43   1
    46    43    44   1
    47    43    48   1
    48    44    45   1
    49    45    46   1
    50    46    47   1
    51    48    49   2
    52    48    50  am
    53    50    51   1
    54    51    52   1
    55    51    54   1
    56    52    53   2
    57    52    55  am
    58    55    56   1
    59    56    57   1
    60    56    59   1
    61    57    58  ar
    62    57    65  ar
    63    59    60   1
    64    60    61   1
    65    60    62   2
    66    61    63   1
    67    62    64   1
    68    63    64   2
    69     1    66   1
    70     1    67   1
    71     2    68   1
    72     5    69   1
    73     5    70   1
    74     6    71   1
    75     6    72   1
    76     7    73   1
    77     7    74   1
    78     8    75   1
    79     9    76   1
    80    12    77   1
    81    12    78   1
    82    14    79   1
    83    15    80   1
    84    16    81   1
    85    18    82   1
    86    19    83   1
    87    22    84   1
    88    22    85   1
    89    23    86   1
    90    24    87   1
    91    24    88   1
    92    24    89   1
    93    25    90   1
    94    25    91   1
    95    25    92   1
    96    26    93   1
    97    27    94   1
    98    30    95   1
    99    30    96   1
   100    31    97   1
   101    32    98   1
   102    33    99   1
   103    34   100   1
   104    34   101   1
   105    36   102   1
   106    37   103   1
   107    38   104   1
   108    39   105   1
   109    40   106   1
   110    41   107   1
   111    41   108   1
   112    42   109   1
   113    42   110   1
   114    43   111   1
   115    44   112   1
   116    44   113   1
   117    45   114   1
   118    45   115   1
   119    47   116   1
   120    47   117   1
   121    47   118   1
   122    50   119   1
   123    51   120   1
   124    54   121   1
   125    54   122   1
   126    54   123   1
   127    55   124   1
   128    56   125   1
   129    59   126   1
   130    59   127   1
   131    61   128   1
   132    62   129   1
   133    63   130   1
@<TRIPOS>SUBSTRUCTURE
     1  PRO      2

