@<TRIPOS>MOLECULE
3uri_ligand_064
   130   133
SMALL
GAST_HUCK
****
This file was generated by PARSER (from files_GN.cpp)

@<TRIPOS>ATOM
      1 N           4.1931   27.1791   28.2935 N.4         1 PRO       0.2461
      2 CA          3.5358   26.8443   27.0121 C.3         1 PRO       0.0670
      3 C           4.3618   26.0860   26.0858 C.2         1 PRO       0.2269
      4 O           5.5279   25.8371   26.3647 O.2         1 PRO      -0.3907
      5 CB          3.1050   28.2242   26.4694 C.3         1 PRO       0.0127
      6 CG          2.7332   29.0239   27.7289 C.3         1 PRO      -0.0053
      7 CD          3.5033   28.3397   28.8763 C.3         1 PRO      -0.0313
      8 N           3.8188   25.6594   24.9526 N.am        1 PRO      -0.2592
      9 CA          4.4621   24.9355   23.8849 C.3         1 PRO       0.1422
     10 C           4.3321   25.6417   22.6082 C.2         1 PRO       0.2060
     11 O           4.1090   26.8508   22.6077 O.2         1 PRO      -0.3942
     12 CB          3.9277   23.4658   23.8972 C.3         1 PRO       0.0427
     13 CG          2.6694   23.2448   23.1511 C.2         1 PRO       0.0561
     14 ND1         1.4665   23.7745   23.4190 N.pl3       1 PRO      -0.2623
     15 CD2         2.4992   22.4511   22.0178 C.2         1 PRO      -0.0276
     16 CE1         0.5957   23.3408   22.4940 C.2         1 PRO       0.0875
     17 NE2         1.2173   22.5229   21.6277 N.2         1 PRO      -0.3437
     18 N           4.5600   25.0072   21.4630 N.am        1 PRO      -0.2636
     19 CA          4.6652   25.5608   20.1326 C.3         1 PRO       0.1312
     20 C           5.8252   26.4480   19.9728 C.2         1 PRO       0.2040
     21 O           6.5365   26.7353   20.9333 O.2         1 PRO      -0.3944
     22 CB          3.3333   26.2150   19.6187 C.3         1 PRO      -0.0101
     23 CG          2.0382   25.3460   19.7570 C.3         1 PRO      -0.0425
     24 CD1         0.7682   26.2416   19.7732 C.3         1 PRO      -0.0625
     25 CD2         1.9198   24.2657   18.6429 C.3         1 PRO      -0.0625
     26 N           6.1514   26.8589   18.7477 N.am        1 PRO      -0.2616
     27 CA          7.3222   27.6163   18.3699 C.3         1 PRO       0.1538
     28 C           7.6235   28.7699   19.2167 C.2         1 PRO       0.2045
     29 O           8.7934   29.1536   19.2563 O.2         1 PRO      -0.3944
     30 CB          7.1619   28.0699   16.8840 C.3         1 PRO       0.0843
     31 OG          8.3611   27.9257   16.1195 O.3         1 PRO      -0.3903
     32 N           6.6808   29.4298   19.8793 N.am        1 PRO      -0.2748
     33 C1          6.7879   30.6850   20.5737 C.3         1 PRO       0.0911
     34 C2          7.9103   30.7297   21.6597 C.3         1 PRO       0.0089
     35 C3          7.4939   30.0839   22.9353 C.ar        1 PRO      -0.0406
     36 C4          7.5660   28.6816   23.1013 C.ar        1 PRO      -0.0603
     37 C5          7.0367   30.8749   24.0194 C.ar        1 PRO      -0.0603
     38 C6          7.1926   28.0821   24.3194 C.ar        1 PRO      -0.0686
     39 C7          6.6812   30.2805   25.2467 C.ar        1 PRO      -0.0686
     40 C8          6.7586   28.8820   25.3939 C.ar        1 PRO      -0.0687
     41 C9          6.8996   31.8662   19.5720 C.3         1 PRO      -0.0062
     42 N2          5.8467   31.7818   18.5297 N.4         1 PRO       0.2479
     43 C10         5.7609   32.8947   17.5466 C.3         1 PRO       0.0676
     44 C11         6.8706   32.7812   16.4523 C.3         1 PRO       0.0169
     45 C12         6.9535   33.9502   15.4334 C.3         1 PRO       0.0007
     46 SD          5.5378   34.1636   14.3181 S.3         1 PRO      -0.1638
     47 C13         5.6975   32.6697   13.3115 C.3         1 PRO      -0.0181
     48 C           4.4049   32.8851   17.0053 C.2         1 PRO       0.2268
     49 O           3.6272   33.7642   17.3650 O.2         1 PRO      -0.3907
     50 N           4.0032   31.9059   16.1993 N.am        1 PRO      -0.2613
     51 CA          2.7322   31.7515   15.5374 C.3         1 PRO       0.1283
     52 C           2.4329   32.8635   14.6366 C.2         1 PRO       0.2032
     53 O           2.5965   34.0041   15.0491 O.2         1 PRO      -0.3944
     54 CB          1.5803   31.4629   16.5297 C.3         1 PRO      -0.0244
     55 N           2.0544   32.6286   13.3825 N.am        1 PRO      -0.2677
     56 CA          1.8836   33.5317   12.2684 C.3         1 PRO       0.1056
     57 C           1.8789   34.9998   12.5145 C.2         1 PRO       0.0621
     58 O           0.8649   35.5994   13.1859 O.co2       1 PRO      -0.5664
     59 CB          0.6763   33.0766   11.3926 C.3         1 PRO       0.0372
     60 CG         -0.6072   33.7308   11.7152 C.2         1 PRO       0.0555
     61 ND1        -1.1230   34.7912   11.0680 N.pl3       1 PRO      -0.2623
     62 CD2        -1.5290   33.3984   12.7048 C.2         1 PRO      -0.0276
     63 CE1        -2.2896   35.1073   11.6376 C.2         1 PRO       0.0875
     64 NE2        -2.5532   34.2638   12.6527 N.2         1 PRO      -0.3437
     65 OXT         2.9658   35.7554   12.2241 O.co2       1 PRO      -0.5664
     66 H1          5.1675   27.4334   28.1132 H           1 PRO       0.2035
     67 H2          4.1624   26.3804   28.9326 H           1 PRO       0.2035
     68 H3          2.6438   26.2477   27.2382 H           1 PRO       0.1099
     69 H4          2.2558   28.1399   25.7834 H           1 PRO       0.0347
     70 H5          3.9336   28.7164   25.9526 H           1 PRO       0.0347
     71 H6          1.6573   28.9614   27.9096 H           1 PRO       0.0320
     72 H7          3.0160   30.0745   27.6257 H           1 PRO       0.0320
     73 H8          4.2396   29.0149   29.3210 H           1 PRO       0.0814
     74 H9          2.8148   28.0035   29.6580 H           1 PRO       0.0814
     75 H10         2.8878   25.8836   24.8082 H           1 PRO       0.1886
     76 H11         5.5385   24.8669   24.0685 H           1 PRO       0.0824
     77 H12         3.7699   23.1456   24.9318 H           1 PRO       0.0491
     78 H13         4.7007   22.8102   23.4857 H           1 PRO       0.0491
     79 H14         1.2580   24.3807   24.1473 H           1 PRO       0.2386
     80 H15         3.2267   21.9057   21.5530 H           1 PRO       0.0324
     81 H16        -0.3927   23.5932   22.4539 H           1 PRO       0.1149
     82 H17         4.7127   24.0506   21.5308 H           1 PRO       0.1883
     83 H18         4.8695   24.6975   19.4900 H           1 PRO       0.0800
     84 H19         3.4483   26.4703   18.5581 H           1 PRO       0.0315
     85 H20         3.1828   27.1604   20.1537 H           1 PRO       0.0315
     86 H21         2.0718   24.8300   20.7228 H           1 PRO       0.0298
     87 H22        -0.1285   25.6252   19.8926 H           1 PRO       0.0232
     88 H23         0.6838   26.8113   18.8407 H           1 PRO       0.0232
     89 H24         0.8100   26.9437   20.6118 H           1 PRO       0.0232
     90 H25         2.7705   23.5799   18.6750 H           1 PRO       0.0232
     91 H26         1.8819   24.7376   17.6550 H           1 PRO       0.0232
     92 H27         1.0089   23.6753   18.7847 H           1 PRO       0.0232
     93 H28         5.5874   26.5314   18.0190 H           1 PRO       0.1884
     94 H29         8.1575   26.9111   18.4247 H           1 PRO       0.0823
     95 H30         6.8277   29.1137   16.8358 H           1 PRO       0.0606
     96 H31         6.4079   27.4504   16.3884 H           1 PRO       0.0606
     97 H32         8.9233   28.7087   16.3013 H           1 PRO       0.2097
     98 H33         5.7841   29.0594   19.8146 H           1 PRO       0.1859
     99 H34         5.8320   30.8235   21.0861 H           1 PRO       0.0632
    100 H35         8.1648   31.7789   21.8611 H           1 PRO       0.0450
    101 H36         8.8247   30.2526   21.2847 H           1 PRO       0.0450
    102 H37         7.9094   28.0935   22.3384 H           1 PRO       0.0557
    103 H38         6.9777   31.8964   23.9315 H           1 PRO       0.0557
    104 H39         7.2578   27.0681   24.4296 H           1 PRO       0.0599
    105 H40         6.3799   30.8620   26.0340 H           1 PRO       0.0599
    106 H41         6.5258   28.4493   26.2932 H           1 PRO       0.0559
    107 H42         7.8864   31.8667   19.1069 H           1 PRO       0.0839
    108 H43         6.7829   32.8062   20.1127 H           1 PRO       0.0839
    109 H44         4.9460   31.7428   19.0092 H           1 PRO       0.2036
    110 H45         5.9693   30.9095   18.0122 H           1 PRO       0.2036
    111 H46         5.9209   33.8427   18.0774 H           1 PRO       0.1099
    112 H47         6.7824   31.8291   15.9256 H           1 PRO       0.0354
    113 H48         7.8363   32.7581   16.9608 H           1 PRO       0.0354
    114 H49         7.8435   33.8052   14.8157 H           1 PRO       0.0380
    115 H50         7.0924   34.8875   15.9757 H           1 PRO       0.0380
    116 H51         5.1653   32.8158   12.3732 H           1 PRO       0.0340
    117 H52         5.2588   31.8224   13.8342 H           1 PRO       0.0340
    118 H53         6.7420   32.4581   13.0907 H           1 PRO       0.0340
    119 H54         4.6649   31.2214   16.0005 H           1 PRO       0.1884
    120 H55         2.8391   30.8392   14.9428 H           1 PRO       0.0797
    121 H56         0.6729   31.1831   15.9925 H           1 PRO       0.0277
    122 H57         1.3590   32.3359   17.1419 H           1 PRO       0.0277
    123 H58         1.8497   30.6405   17.1940 H           1 PRO       0.0277
    124 H59         1.9481   31.6882   13.1542 H           1 PRO       0.1877
    125 H60         2.7704   33.3411   11.6611 H           1 PRO       0.0750
    126 H61         0.5420   31.9931   11.4912 H           1 PRO       0.0484
    127 H62         0.9146   33.2768   10.3415 H           1 PRO       0.0484
    128 H63        -0.6999   35.2566   10.3278 H           1 PRO       0.2386
    129 H64        -1.4354   32.6387   13.3845 H           1 PRO       0.0324
    130 H65        -2.8936   35.8787   11.3416 H           1 PRO       0.1149
@<TRIPOS>BOND
     1     1     2   1
     2     1     7   1
     3     2     3   1
     4     2     5   1
     5     3     4   2
     6     3     8  am
     7     5     6   1
     8     6     7   1
     9     8     9   1
    10     9    10   1
    11     9    12   1
    12    10    11   2
    13    10    18  am
    14    12    13   1
    15    13    14   1
    16    13    15   2
    17    14    16   1
    18    15    17   1
    19    16    17   2
    20    18    19   1
    21    19    20   1
    22    19    22   1
    23    20    21   2
    24    20    26  am
    25    22    23   1
    26    23    24   1
    27    23    25   1
    28    26    27   1
    29    27    28   1
    30    27    30   1
    31    28    29   2
    32    28    32  am
    33    30    31   1
    34    32    33   1
    35    33    34   1
    36    33    41   1
    37    34    35   1
    38    35    36  ar
    39    35    37  ar
    40    36    38  ar
    41    37    39  ar
    42    38    40  ar
    43    39    40  ar
    44    41    42   1
    45    42    43   1
    46    43    44   1
    47    43    48   1
    48    44    45   1
    49    45    46   1
    50    46    47   1
    51    48    49   2
    52    48    50  am
    53    50    51   1
    54    51    52   1
    55    51    54   1
    56    52    53   2
    57    52    55  am
    58    55    56   1
    59    56    57   1
    60    56    59   1
    61    57    58  ar
    62    57    65  ar
    63    59    60   1
    64    60    61   1
    65    60    62   2
    66    61    63   1
    67    62    64   1
    68    63    64   2
    69     1    66   1
    70     1    67   1
    71     2    68   1
    72     5    69   1
    73     5    70   1
    74     6    71   1
    75     6    72   1
    76     7    73   1
    77     7    74   1
    78     8    75   1
    79     9    76   1
    80    12    77   1
    81    12    78   1
    82    14    79   1
    83    15    80   1
    84    16    81   1
    85    18    82   1
    86    19    83   1
    87    22    84   1
    88    22    85   1
    89    23    86   1
    90    24    87   1
    91    24    88   1
    92    24    89   1
    93    25    90   1
    94    25    91   1
    95    25    92   1
    96    26    93   1
    97    27    94   1
    98    30    95   1
    99    30    96   1
   100    31    97   1
   101    32    98   1
   102    33    99   1
   103    34   100   1
   104    34   101   1
   105    36   102   1
   106    37   103   1
   107    38   104   1
   108    39   105   1
   109    40   106   1
   110    41   107   1
   111    41   108   1
   112    42   109   1
   113    42   110   1
   114    43   111   1
   115    44   112   1
   116    44   113   1
   117    45   114   1
   118    45   115   1
   119    47   116   1
   120    47   117   1
   121    47   118   1
   122    50   119   1
   123    51   120   1
   124    54   121   1
   125    54   122   1
   126    54   123   1
   127    55   124   1
   128    56   125   1
   129    59   126   1
   130    59   127   1
   131    61   128   1
   132    62   129   1
   133    63   130   1
@<TRIPOS>SUBSTRUCTURE
     1  PRO      2

