@<TRIPOS>MOLECULE
3uri_ligand_019
   130   133
SMALL
GAST_HUCK
****
This file was generated by PARSER (from files_GN.cpp)

@<TRIPOS>ATOM
      1 N           1.2457   25.4140   20.6625 N.4         1 PRO       0.2461
      2 CA          2.5577   25.7351   20.0619 C.3         1 PRO       0.0670
      3 C           2.5441   26.9424   19.2435 C.2         1 PRO       0.2269
      4 O           1.7763   27.8463   19.5517 O.2         1 PRO      -0.3907
      5 CB          2.9272   24.4180   19.3427 C.3         1 PRO       0.0127
      6 CG          2.4260   23.3296   20.3037 C.3         1 PRO      -0.0053
      7 CD          1.2107   23.9780   20.9961 C.3         1 PRO      -0.0313
      8 N           3.4624   27.1292   18.2981 N.am        1 PRO      -0.2592
      9 CA          3.6802   28.2919   17.4705 C.3         1 PRO       0.1422
     10 C           4.4173   29.3588   18.1527 C.2         1 PRO       0.2060
     11 O           4.2833   29.5361   19.3583 O.2         1 PRO      -0.3942
     12 CB          2.3900   28.7308   16.6800 C.3         1 PRO       0.0427
     13 CG          2.0807   30.1775   16.6058 C.2         1 PRO       0.0561
     14 ND1         1.9896   30.9156   15.4920 N.pl3       1 PRO      -0.2623
     15 CD2         1.8213   31.0424   17.6669 C.2         1 PRO      -0.0276
     16 CE1         1.6943   32.1778   15.8393 C.2         1 PRO       0.0875
     17 NE2         1.5862   32.2676   17.1744 N.2         1 PRO      -0.3437
     18 N           5.1890   30.1711   17.4340 N.am        1 PRO      -0.2636
     19 CA          5.9174   31.3246   17.8955 C.3         1 PRO       0.1312
     20 C           6.2779   32.1632   16.7432 C.2         1 PRO       0.2040
     21 O           7.4549   32.4116   16.5117 O.2         1 PRO      -0.3944
     22 CB          7.1018   30.9503   18.8667 C.3         1 PRO      -0.0101
     23 CG          8.1040   29.8122   18.4664 C.3         1 PRO      -0.0425
     24 CD1         8.0402   29.3743   16.9784 C.3         1 PRO      -0.0625
     25 CD2         9.5658   30.2113   18.8270 C.3         1 PRO      -0.0625
     26 N           5.3324   32.7095   15.9752 N.am        1 PRO      -0.2616
     27 CA          5.5735   33.4903   14.7805 C.3         1 PRO       0.1538
     28 C           4.4336   34.3354   14.4156 C.2         1 PRO       0.2045
     29 O           3.8605   34.9393   15.3122 O.2         1 PRO      -0.3944
     30 CB          6.0815   32.5323   13.6643 C.3         1 PRO       0.0843
     31 OG          5.0396   31.6514   13.2421 O.3         1 PRO      -0.3903
     32 N           4.1714   34.6366   13.1432 N.am        1 PRO      -0.2748
     33 C1          3.4331   35.7403   12.5880 C.3         1 PRO       0.0911
     34 C2          1.9212   35.7811   13.0069 C.3         1 PRO       0.0089
     35 C3          0.9929   35.0322   12.1128 C.ar        1 PRO      -0.0406
     36 C4          0.9723   35.2951   10.7203 C.ar        1 PRO      -0.0603
     37 C5          0.0634   34.1028   12.6357 C.ar        1 PRO      -0.0603
     38 C6          0.0693   34.6324    9.8734 C.ar        1 PRO      -0.0686
     39 C7         -0.8469   33.4471   11.7913 C.ar        1 PRO      -0.0686
     40 C8         -0.8410   33.7031   10.4093 C.ar        1 PRO      -0.0687
     41 C9          4.1379   37.1195   12.7935 C.3         1 PRO      -0.0062
     42 N2          3.8154   38.0076   11.6464 N.4         1 PRO       0.2479
     43 C10         4.0135   39.4711   11.7961 C.3         1 PRO       0.0676
     44 C11         5.5219   39.8963   11.7898 C.3         1 PRO       0.0169
     45 C12         5.8181   41.4070   11.5531 C.3         1 PRO       0.0007
     46 SD          4.7663   42.4980   12.5535 S.3         1 PRO      -0.1638
     47 C13         4.7098   43.9197   11.4385 C.3         1 PRO      -0.0181
     48 C           3.2364   40.0833   10.7248 C.2         1 PRO       0.2268
     49 O           3.5398   39.8443    9.5604 O.2         1 PRO      -0.3907
     50 N           2.2117   40.8672   11.0273 N.am        1 PRO      -0.2613
     51 CA          1.4105   41.6376   10.1217 C.3         1 PRO       0.1283
     52 C           0.4576   42.3915   10.9324 C.2         1 PRO       0.2032
     53 O          -0.6254   41.8827   11.2078 O.2         1 PRO      -0.3944
     54 CB          0.7245   40.7727    9.0197 C.3         1 PRO      -0.0244
     55 N           0.8049   43.5561   11.4783 N.am        1 PRO      -0.2677
     56 CA         -0.0345   44.3730   12.3153 C.3         1 PRO       0.1056
     57 C          -1.0991   44.9957   11.4914 C.2         1 PRO       0.0621
     58 O          -2.3997   44.7163   11.7253 O.co2       1 PRO      -0.5664
     59 CB          0.7682   45.4727   13.0796 C.3         1 PRO       0.0372
     60 CG          1.7671   44.9536   14.0391 C.2         1 PRO       0.0555
     61 ND1         3.0324   45.3731   14.1577 N.pl3       1 PRO      -0.2623
     62 CD2         1.5782   44.0132   15.0489 C.2         1 PRO      -0.0276
     63 CE1         3.6108   44.7149   15.1733 C.2         1 PRO       0.0875
     64 NE2         2.7243   43.8760   15.7311 N.2         1 PRO      -0.3437
     65 OXT        -0.7879   45.7723   10.4290 O.co2       1 PRO      -0.5664
     66 H1          0.5059   25.6070   19.9824 H           1 PRO       0.2035
     67 H2          1.0900   25.9775   21.5012 H           1 PRO       0.2035
     68 H3          3.2707   25.9057   20.8775 H           1 PRO       0.1099
     69 H4          4.0033   24.3307   19.1775 H           1 PRO       0.0347
     70 H5          2.4001   24.3385   18.3865 H           1 PRO       0.0347
     71 H6          3.2005   23.0969   21.0418 H           1 PRO       0.0320
     72 H7          2.1563   22.4140   19.7690 H           1 PRO       0.0320
     73 H8          0.2778   23.5448   20.6264 H           1 PRO       0.0814
     74 H9          1.2622   23.8421   22.0796 H           1 PRO       0.0814
     75 H10         4.0636   26.3866   18.1399 H           1 PRO       0.1886
     76 H11         4.3827   27.9135   16.7189 H           1 PRO       0.0824
     77 H12         1.5028   28.2502   17.0966 H           1 PRO       0.0491
     78 H13         2.4731   28.3628   15.6532 H           1 PRO       0.0491
     79 H14         2.1028   30.5897   14.5854 H           1 PRO       0.2386
     80 H15         1.8034   30.7926   18.6553 H           1 PRO       0.0324
     81 H16         1.5766   32.9543   15.1902 H           1 PRO       0.1149
     82 H17         5.2437   29.9811   16.4819 H           1 PRO       0.1883
     83 H18         5.2215   31.9405   18.4731 H           1 PRO       0.0800
     84 H19         6.6537   30.6498   19.8204 H           1 PRO       0.0315
     85 H20         7.6694   31.8604   19.0856 H           1 PRO       0.0315
     86 H21         7.8580   28.9298   19.0700 H           1 PRO       0.0298
     87 H22         8.7638   28.5772   16.7893 H           1 PRO       0.0232
     88 H23         8.2657   30.2170   16.3215 H           1 PRO       0.0232
     89 H24         7.0503   28.9881   16.7310 H           1 PRO       0.0232
     90 H25         9.6381   30.4944   19.8788 H           1 PRO       0.0232
     91 H26         9.8992   31.0560   18.2166 H           1 PRO       0.0232
     92 H27        10.2460   29.3741   18.6544 H           1 PRO       0.0232
     93 H28         4.4073   32.5352   16.2146 H           1 PRO       0.1884
     94 H29         6.3829   34.1993   14.9921 H           1 PRO       0.0823
     95 H30         6.9258   31.9414   14.0287 H           1 PRO       0.0606
     96 H31         6.4293   33.1083   12.8034 H           1 PRO       0.0606
     97 H32         5.1788   31.5450   12.2830 H           1 PRO       0.2097
     98 H33         4.6302   34.0972   12.4811 H           1 PRO       0.1859
     99 H34         3.4875   35.5504   11.5116 H           1 PRO       0.0632
    100 H35         1.5558   36.8125   13.0185 H           1 PRO       0.0450
    101 H36         1.8343   35.4284   14.0361 H           1 PRO       0.0450
    102 H37         1.6119   35.9812   10.3129 H           1 PRO       0.0557
    103 H38         0.0214   33.9219   13.6413 H           1 PRO       0.0557
    104 H39         0.0744   34.8270    8.8707 H           1 PRO       0.0599
    105 H40        -1.5212   32.7873   12.1839 H           1 PRO       0.0599
    106 H41        -1.5068   33.2289    9.7951 H           1 PRO       0.0559
    107 H42         5.2201   36.9850   12.8280 H           1 PRO       0.0839
    108 H43         3.8087   37.5586   13.7391 H           1 PRO       0.0839
    109 H44         2.8258   37.8699   11.4271 H           1 PRO       0.2036
    110 H45         4.3560   37.6804   10.8417 H           1 PRO       0.2036
    111 H46         3.5859   39.7717   12.7600 H           1 PRO       0.1099
    112 H47         6.0352   39.3329   11.0052 H           1 PRO       0.0354
    113 H48         5.9690   39.6025   12.7462 H           1 PRO       0.0354
    114 H49         5.6847   41.6182   10.4881 H           1 PRO       0.0380
    115 H50         6.8635   41.6129   11.7986 H           1 PRO       0.0380
    116 H51         4.0950   44.6974   11.8828 H           1 PRO       0.0340
    117 H52         4.2689   43.6310   10.4827 H           1 PRO       0.0340
    118 H53         5.7124   44.3159   11.2767 H           1 PRO       0.0340
    119 H54         2.0171   40.9719   11.9748 H           1 PRO       0.1884
    120 H55         2.0715   42.3451    9.6109 H           1 PRO       0.0797
    121 H56        -0.0020   41.3718    8.4656 H           1 PRO       0.0277
    122 H57         0.2066   39.9191    9.4650 H           1 PRO       0.0277
    123 H58         1.4605   40.3949    8.3051 H           1 PRO       0.0277
    124 H59         1.7013   43.8807   11.2979 H           1 PRO       0.1877
    125 H60        -0.5085   43.7378   13.0641 H           1 PRO       0.0750
    126 H61         0.0686   46.0843   13.6549 H           1 PRO       0.0484
    127 H62         1.2702   46.1276   12.3650 H           1 PRO       0.0484
    128 H63         3.4588   46.0511   13.6091 H           1 PRO       0.2386
    129 H64         0.7132   43.5101   15.2511 H           1 PRO       0.0324
    130 H65         4.5765   44.8412   15.4822 H           1 PRO       0.1149
@<TRIPOS>BOND
     1     1     2   1
     2     1     7   1
     3     2     3   1
     4     2     5   1
     5     3     4   2
     6     3     8  am
     7     5     6   1
     8     6     7   1
     9     8     9   1
    10     9    10   1
    11     9    12   1
    12    10    11   2
    13    10    18  am
    14    12    13   1
    15    13    14   1
    16    13    15   2
    17    14    16   1
    18    15    17   1
    19    16    17   2
    20    18    19   1
    21    19    20   1
    22    19    22   1
    23    20    21   2
    24    20    26  am
    25    22    23   1
    26    23    24   1
    27    23    25   1
    28    26    27   1
    29    27    28   1
    30    27    30   1
    31    28    29   2
    32    28    32  am
    33    30    31   1
    34    32    33   1
    35    33    34   1
    36    33    41   1
    37    34    35   1
    38    35    36  ar
    39    35    37  ar
    40    36    38  ar
    41    37    39  ar
    42    38    40  ar
    43    39    40  ar
    44    41    42   1
    45    42    43   1
    46    43    44   1
    47    43    48   1
    48    44    45   1
    49    45    46   1
    50    46    47   1
    51    48    49   2
    52    48    50  am
    53    50    51   1
    54    51    52   1
    55    51    54   1
    56    52    53   2
    57    52    55  am
    58    55    56   1
    59    56    57   1
    60    56    59   1
    61    57    58  ar
    62    57    65  ar
    63    59    60   1
    64    60    61   1
    65    60    62   2
    66    61    63   1
    67    62    64   1
    68    63    64   2
    69     1    66   1
    70     1    67   1
    71     2    68   1
    72     5    69   1
    73     5    70   1
    74     6    71   1
    75     6    72   1
    76     7    73   1
    77     7    74   1
    78     8    75   1
    79     9    76   1
    80    12    77   1
    81    12    78   1
    82    14    79   1
    83    15    80   1
    84    16    81   1
    85    18    82   1
    86    19    83   1
    87    22    84   1
    88    22    85   1
    89    23    86   1
    90    24    87   1
    91    24    88   1
    92    24    89   1
    93    25    90   1
    94    25    91   1
    95    25    92   1
    96    26    93   1
    97    27    94   1
    98    30    95   1
    99    30    96   1
   100    31    97   1
   101    32    98   1
   102    33    99   1
   103    34   100   1
   104    34   101   1
   105    36   102   1
   106    37   103   1
   107    38   104   1
   108    39   105   1
   109    40   106   1
   110    41   107   1
   111    41   108   1
   112    42   109   1
   113    42   110   1
   114    43   111   1
   115    44   112   1
   116    44   113   1
   117    45   114   1
   118    45   115   1
   119    47   116   1
   120    47   117   1
   121    47   118   1
   122    50   119   1
   123    51   120   1
   124    54   121   1
   125    54   122   1
   126    54   123   1
   127    55   124   1
   128    56   125   1
   129    59   126   1
   130    59   127   1
   131    61   128   1
   132    62   129   1
   133    63   130   1
@<TRIPOS>SUBSTRUCTURE
     1  PRO      2

