@<TRIPOS>MOLECULE
3uri_ligand_051
   130   133
SMALL
GAST_HUCK
****
This file was generated by PARSER (from files_GN.cpp)

@<TRIPOS>ATOM
      1 N          -0.6761   23.5649   20.4433 N.4         1 PRO       0.2461
      2 CA         -1.5709   24.6823   20.0712 C.3         1 PRO       0.0670
      3 C          -0.8542   25.7427   19.3774 C.2         1 PRO       0.2269
      4 O          -0.9261   26.9012   19.7677 O.2         1 PRO      -0.3907
      5 CB         -2.2992   25.0573   21.3859 C.3         1 PRO       0.0127
      6 CG         -2.4114   23.7105   22.1105 C.3         1 PRO      -0.0053
      7 CD         -1.0879   23.0207   21.7502 C.3         1 PRO      -0.0313
      8 N          -0.1466   25.4283   18.3008 N.am        1 PRO      -0.2592
      9 CA          0.6549   26.2799   17.4622 C.3         1 PRO       0.1422
     10 C           2.0260   26.4039   17.9427 C.2         1 PRO       0.2060
     11 O           2.9075   26.5850   17.1053 O.2         1 PRO      -0.3942
     12 CB         -0.0478   27.6166   17.0165 C.3         1 PRO       0.0427
     13 CG          0.6108   28.9100   17.3211 C.2         1 PRO       0.0561
     14 ND1         1.2583   29.2576   18.4448 N.pl3       1 PRO      -0.2623
     15 CD2         0.6024   30.0559   16.5201 C.2         1 PRO      -0.0276
     16 CE1         1.6614   30.5288   18.3260 C.2         1 PRO       0.0875
     17 NE2         1.2572   31.0458   17.1429 N.2         1 PRO      -0.3437
     18 N           2.3106   26.4694   19.2377 N.am        1 PRO      -0.2636
     19 CA          3.6075   26.4978   19.8713 C.3         1 PRO       0.1312
     20 C           4.5515   27.4242   19.2380 C.2         1 PRO       0.2040
     21 O           4.0934   28.3411   18.5698 O.2         1 PRO      -0.3944
     22 CB          4.0650   25.0136   20.1278 C.3         1 PRO      -0.0101
     23 CG          4.1474   24.5583   21.6239 C.3         1 PRO      -0.0425
     24 CD1         5.3580   25.1836   22.3723 C.3         1 PRO      -0.0625
     25 CD2         2.8223   24.7428   22.4171 C.3         1 PRO      -0.0625
     26 N           5.8626   27.3502   19.4562 N.am        1 PRO      -0.2616
     27 CA          6.9144   28.1480   18.8835 C.3         1 PRO       0.1538
     28 C           7.1519   29.4110   19.5866 C.2         1 PRO       0.2045
     29 O           8.3051   29.7362   19.8587 O.2         1 PRO      -0.3944
     30 CB          6.7887   28.3785   17.3492 C.3         1 PRO       0.0843
     31 OG          6.0894   27.3202   16.6976 O.3         1 PRO      -0.3903
     32 N           6.1399   30.2133   19.8896 N.am        1 PRO      -0.2748
     33 C1          6.1286   31.5171   20.4987 C.3         1 PRO       0.0911
     34 C2          6.9059   31.6193   21.8542 C.3         1 PRO       0.0089
     35 C3          6.4410   30.8217   23.0334 C.ar        1 PRO      -0.0406
     36 C4          5.4990   29.7628   22.9682 C.ar        1 PRO      -0.0603
     37 C5          7.0200   31.1111   24.2954 C.ar        1 PRO      -0.0603
     38 C6          5.1304   29.0469   24.1238 C.ar        1 PRO      -0.0686
     39 C7          6.6472   30.4015   25.4544 C.ar        1 PRO      -0.0686
     40 C8          5.6997   29.3702   25.3684 C.ar        1 PRO      -0.0687
     41 C9          6.5510   32.6182   19.4795 C.3         1 PRO      -0.0062
     42 N2          5.8550   32.4519   18.1709 N.4         1 PRO       0.2479
     43 C10         5.9483   33.5721   17.1918 C.3         1 PRO       0.0676
     44 C11         7.3636   33.7560   16.5316 C.3         1 PRO       0.0169
     45 C12         8.1116   32.5254   15.9307 C.3         1 PRO       0.0007
     46 SD          8.6624   31.2562   17.0993 S.3         1 PRO      -0.1638
     47 C13        10.1081   32.0603   17.8227 C.3         1 PRO      -0.0181
     48 C           4.7879   33.4988   16.2938 C.2         1 PRO       0.2268
     49 O           3.7082   33.8564   16.7555 O.2         1 PRO      -0.3907
     50 N           4.8552   33.0231   15.0494 N.am        1 PRO      -0.2613
     51 CA          3.8006   32.8610   14.0804 C.3         1 PRO       0.1283
     52 C           3.3047   34.1213   13.5349 C.2         1 PRO       0.2032
     53 O           3.1848   35.0822   14.2870 O.2         1 PRO      -0.3944
     54 CB          2.6428   31.9429   14.5623 C.3         1 PRO      -0.0244
     55 N           2.9356   34.1729   12.2573 N.am        1 PRO      -0.2677
     56 CA          2.4143   35.2659   11.4764 C.3         1 PRO       0.1056
     57 C           1.9914   36.5059   12.1834 C.2         1 PRO       0.0621
     58 O           1.2709   36.4580   13.3274 O.co2       1 PRO      -0.5664
     59 CB          1.3008   34.7311   10.5201 C.3         1 PRO       0.0372
     60 CG          0.0393   34.2264   11.1074 C.2         1 PRO       0.0555
     61 ND1        -0.9589   33.7188   10.3678 N.pl3       1 PRO      -0.2623
     62 CD2        -0.4039   34.1569   12.4324 C.2         1 PRO      -0.0276
     63 CE1        -1.9722   33.3871   11.1718 C.2         1 PRO       0.0875
     64 NE2        -1.6423   33.6440   12.4506 N.2         1 PRO      -0.3437
     65 OXT         2.3356   37.7210   11.6893 O.co2       1 PRO      -0.5664
     66 H1          0.2916   23.8927   20.5076 H           1 PRO       0.2035
     67 H2         -0.7293   22.8333   19.7291 H           1 PRO       0.2035
     68 H3         -2.3240   24.2832   19.3837 H           1 PRO       0.1099
     69 H4         -3.2829   25.4984   21.1927 H           1 PRO       0.0347
     70 H5         -1.7037   25.7499   21.9900 H           1 PRO       0.0347
     71 H6         -3.2581   23.1431   21.7153 H           1 PRO       0.0320
     72 H7         -2.5313   23.8365   23.1876 H           1 PRO       0.0320
     73 H8         -0.3225   23.2652   22.4893 H           1 PRO       0.0814
     74 H9         -1.2035   21.9382   21.7012 H           1 PRO       0.0814
     75 H10        -0.1863   24.4922   18.0368 H           1 PRO       0.1886
     76 H11         0.7201   25.6729   16.5496 H           1 PRO       0.0824
     77 H12        -1.0388   27.6739   17.4750 H           1 PRO       0.0491
     78 H13        -0.2046   27.5761   15.9306 H           1 PRO       0.0491
     79 H14         1.4117   28.6817   19.2194 H           1 PRO       0.2386
     80 H15         0.1508   30.1361   15.6049 H           1 PRO       0.0324
     81 H16         2.2050   31.0256   19.0335 H           1 PRO       0.1149
     82 H17         1.5596   26.3994   19.8472 H           1 PRO       0.1883
     83 H18         3.4172   26.9669   20.8353 H           1 PRO       0.0800
     84 H19         5.0330   24.8164   19.6584 H           1 PRO       0.0315
     85 H20         3.3757   24.3187   19.6388 H           1 PRO       0.0315
     86 H21         4.3269   23.4756   21.6155 H           1 PRO       0.0298
     87 H22         5.3880   24.8375   23.4104 H           1 PRO       0.0232
     88 H23         5.2985   26.2776   22.3681 H           1 PRO       0.0232
     89 H24         6.2935   24.8850   21.8870 H           1 PRO       0.0232
     90 H25         1.9735   24.4170   21.8161 H           1 PRO       0.0232
     91 H26         2.6692   25.7875   22.7040 H           1 PRO       0.0232
     92 H27         2.8420   24.1429   23.3315 H           1 PRO       0.0232
     93 H28         6.1665   26.6341   20.0402 H           1 PRO       0.1884
     94 H29         7.8125   27.5314   19.0091 H           1 PRO       0.0823
     95 H30         7.7824   28.4386   16.8963 H           1 PRO       0.0606
     96 H31         6.2604   29.3116   17.1344 H           1 PRO       0.0606
     97 H32         6.6655   26.5349   16.7899 H           1 PRO       0.2097
     98 H33         5.2610   29.8908   19.6425 H           1 PRO       0.1859
     99 H34         5.0777   31.7171   20.7340 H           1 PRO       0.0632
    100 H35         6.8612   32.6742   22.1432 H           1 PRO       0.0450
    101 H36         7.9593   31.3876   21.6882 H           1 PRO       0.0450
    102 H37         5.0660   29.4951   22.0857 H           1 PRO       0.0557
    103 H38         7.7124   31.8568   24.3858 H           1 PRO       0.0557
    104 H39         4.4459   28.2899   24.0637 H           1 PRO       0.0599
    105 H40         7.0666   30.6399   26.3554 H           1 PRO       0.0599
    106 H41         5.4313   28.8497   26.2081 H           1 PRO       0.0559
    107 H42         7.6324   32.5873   19.3445 H           1 PRO       0.0839
    108 H43         6.2843   33.5925   19.9013 H           1 PRO       0.0839
    109 H44         4.8623   32.3241   18.3867 H           1 PRO       0.2036
    110 H45         6.1919   31.5948   17.7233 H           1 PRO       0.2036
    111 H46         5.7994   34.4982   17.7637 H           1 PRO       0.1099
    112 H47         8.0233   34.2253   17.2699 H           1 PRO       0.0354
    113 H48         7.2506   34.4918   15.7283 H           1 PRO       0.0354
    114 H49         8.9843   32.8817   15.3770 H           1 PRO       0.0380
    115 H50         7.4747   32.0073   15.2151 H           1 PRO       0.0380
    116 H51        10.5528   31.3791   18.5479 H           1 PRO       0.0340
    117 H52         9.8206   32.9809   18.3303 H           1 PRO       0.0340
    118 H53        10.8439   32.2713   17.0454 H           1 PRO       0.0340
    119 H54         5.7272   32.7344   14.7477 H           1 PRO       0.1884
    120 H55         4.2900   32.3192   13.2620 H           1 PRO       0.0797
    121 H56         1.9725   31.7105   13.7291 H           1 PRO       0.0277
    122 H57         2.0598   32.4179   15.3555 H           1 PRO       0.0277
    123 H58         3.0542   31.0072   14.9481 H           1 PRO       0.0277
    124 H59         3.0769   33.3458   11.7586 H           1 PRO       0.1877
    125 H60         3.2503   35.5455   10.8273 H           1 PRO       0.0750
    126 H61         1.7271   33.9191    9.9190 H           1 PRO       0.0484
    127 H62         1.0335   35.5337    9.8261 H           1 PRO       0.0484
    128 H63        -0.9559   33.6329    9.3979 H           1 PRO       0.2386
    129 H64         0.1132   34.4612   13.2598 H           1 PRO       0.0324
    130 H65        -2.8613   32.9886   10.8686 H           1 PRO       0.1149
@<TRIPOS>BOND
     1     1     2   1
     2     1     7   1
     3     2     3   1
     4     2     5   1
     5     3     4   2
     6     3     8  am
     7     5     6   1
     8     6     7   1
     9     8     9   1
    10     9    10   1
    11     9    12   1
    12    10    11   2
    13    10    18  am
    14    12    13   1
    15    13    14   1
    16    13    15   2
    17    14    16   1
    18    15    17   1
    19    16    17   2
    20    18    19   1
    21    19    20   1
    22    19    22   1
    23    20    21   2
    24    20    26  am
    25    22    23   1
    26    23    24   1
    27    23    25   1
    28    26    27   1
    29    27    28   1
    30    27    30   1
    31    28    29   2
    32    28    32  am
    33    30    31   1
    34    32    33   1
    35    33    34   1
    36    33    41   1
    37    34    35   1
    38    35    36  ar
    39    35    37  ar
    40    36    38  ar
    41    37    39  ar
    42    38    40  ar
    43    39    40  ar
    44    41    42   1
    45    42    43   1
    46    43    44   1
    47    43    48   1
    48    44    45   1
    49    45    46   1
    50    46    47   1
    51    48    49   2
    52    48    50  am
    53    50    51   1
    54    51    52   1
    55    51    54   1
    56    52    53   2
    57    52    55  am
    58    55    56   1
    59    56    57   1
    60    56    59   1
    61    57    58  ar
    62    57    65  ar
    63    59    60   1
    64    60    61   1
    65    60    62   2
    66    61    63   1
    67    62    64   1
    68    63    64   2
    69     1    66   1
    70     1    67   1
    71     2    68   1
    72     5    69   1
    73     5    70   1
    74     6    71   1
    75     6    72   1
    76     7    73   1
    77     7    74   1
    78     8    75   1
    79     9    76   1
    80    12    77   1
    81    12    78   1
    82    14    79   1
    83    15    80   1
    84    16    81   1
    85    18    82   1
    86    19    83   1
    87    22    84   1
    88    22    85   1
    89    23    86   1
    90    24    87   1
    91    24    88   1
    92    24    89   1
    93    25    90   1
    94    25    91   1
    95    25    92   1
    96    26    93   1
    97    27    94   1
    98    30    95   1
    99    30    96   1
   100    31    97   1
   101    32    98   1
   102    33    99   1
   103    34   100   1
   104    34   101   1
   105    36   102   1
   106    37   103   1
   107    38   104   1
   108    39   105   1
   109    40   106   1
   110    41   107   1
   111    41   108   1
   112    42   109   1
   113    42   110   1
   114    43   111   1
   115    44   112   1
   116    44   113   1
   117    45   114   1
   118    45   115   1
   119    47   116   1
   120    47   117   1
   121    47   118   1
   122    50   119   1
   123    51   120   1
   124    54   121   1
   125    54   122   1
   126    54   123   1
   127    55   124   1
   128    56   125   1
   129    59   126   1
   130    59   127   1
   131    61   128   1
   132    62   129   1
   133    63   130   1
@<TRIPOS>SUBSTRUCTURE
     1  PRO      2

