@<TRIPOS>MOLECULE
3uri_ligand_072
   130   133
SMALL
GAST_HUCK
****
This file was generated by PARSER (from files_GN.cpp)

@<TRIPOS>ATOM
      1 N           7.3523   22.4685   28.7541 N.4         1 PRO       0.2461
      2 CA          8.0692   23.5096   29.5050 C.3         1 PRO       0.0670
      3 C           8.2031   24.7294   28.7181 C.2         1 PRO       0.2269
      4 O           9.1783   24.8789   27.9937 O.2         1 PRO      -0.3907
      5 CB          9.3813   22.8036   29.9255 C.3         1 PRO       0.0127
      6 CG          8.9323   21.3633   30.2236 C.3         1 PRO      -0.0053
      7 CD          7.6483   21.1725   29.3855 C.3         1 PRO      -0.0313
      8 N           7.2522   25.6574   28.8027 N.am        1 PRO      -0.2592
      9 CA          7.1873   26.9487   28.1608 C.3         1 PRO       0.1422
     10 C           6.8235   26.8364   26.7464 C.2         1 PRO       0.2060
     11 O           5.7304   27.2538   26.3693 O.2         1 PRO      -0.3942
     12 CB          8.4516   27.8463   28.3831 C.3         1 PRO       0.0427
     13 CG          8.9609   27.7974   29.7685 C.2         1 PRO       0.0561
     14 ND1        10.1075   27.2139   30.1553 N.pl3       1 PRO      -0.2623
     15 CD2         8.3413   28.2488   30.9268 C.2         1 PRO      -0.0276
     16 CE1        10.1947   27.2983   31.4879 C.2         1 PRO       0.0875
     17 NE2         9.1137   27.9324   31.9809 N.2         1 PRO      -0.3437
     18 N           7.6684   26.2766   25.8901 N.am        1 PRO      -0.2636
     19 CA          7.5649   26.1471   24.4627 C.3         1 PRO       0.1312
     20 C           7.6384   27.4331   23.7558 C.2         1 PRO       0.2040
     21 O           7.4192   28.4974   24.3296 O.2         1 PRO      -0.3944
     22 CB          6.3790   25.2612   23.9507 C.3         1 PRO      -0.0101
     23 CG          6.1899   23.8290   24.5571 C.3         1 PRO      -0.0425
     24 CD1         7.5117   23.0283   24.7149 C.3         1 PRO      -0.0625
     25 CD2         5.3732   23.8143   25.8793 C.3         1 PRO      -0.0625
     26 N           8.0530   27.4277   22.4921 N.am        1 PRO      -0.2616
     27 CA          8.4354   28.5682   21.7071 C.3         1 PRO       0.1538
     28 C           7.2951   29.3906   21.2977 C.2         1 PRO       0.2045
     29 O           6.3767   28.8589   20.6815 O.2         1 PRO      -0.3944
     30 CB          9.2676   28.0765   20.4935 C.3         1 PRO       0.0843
     31 OG          8.4974   27.3257   19.5552 O.3         1 PRO      -0.3903
     32 N           7.2722   30.6907   21.5766 N.am        1 PRO      -0.2748
     33 C1          6.2495   31.6569   21.2585 C.3         1 PRO       0.0911
     34 C2          5.7505   32.2887   22.5989 C.3         1 PRO       0.0089
     35 C3          4.8700   31.3883   23.4027 C.ar        1 PRO      -0.0406
     36 C4          5.2908   30.8410   24.6407 C.ar        1 PRO      -0.0603
     37 C5          3.5590   31.0971   22.9508 C.ar        1 PRO      -0.0603
     38 C6          4.4217   30.0533   25.4167 C.ar        1 PRO      -0.0686
     39 C7          2.6897   30.2960   23.7133 C.ar        1 PRO      -0.0686
     40 C8          3.1212   29.7811   24.9523 C.ar        1 PRO      -0.0687
     41 C9          6.7803   32.7237   20.2363 C.3         1 PRO      -0.0062
     42 N2          6.2504   32.4517   18.8714 N.4         1 PRO       0.2479
     43 C10         6.4633   33.4649   17.7945 C.3         1 PRO       0.0676
     44 C11         7.8920   33.4357   17.1555 C.3         1 PRO       0.0169
     45 C12         8.4867   32.0666   16.7117 C.3         1 PRO       0.0007
     46 SD          9.0567   30.9952   18.0591 S.3         1 PRO      -0.1638
     47 C13        10.5822   31.8429   18.5369 C.3         1 PRO      -0.0181
     48 C           5.3328   33.3655   16.8673 C.2         1 PRO       0.2268
     49 O           4.2369   33.7101   17.2945 O.2         1 PRO      -0.3907
     50 N           5.4338   32.8897   15.6272 N.am        1 PRO      -0.2613
     51 CA          4.3865   32.6793   14.6581 C.3         1 PRO       0.1283
     52 C           3.9044   33.9301   14.0766 C.2         1 PRO       0.2032
     53 O           3.6203   34.8543   14.8248 O.2         1 PRO      -0.3944
     54 CB          3.2264   31.7786   15.1687 C.3         1 PRO      -0.0244
     55 N           3.6945   34.0148   12.7620 N.am        1 PRO      -0.2677
     56 CA          3.3473   35.1634   11.9671 C.3         1 PRO       0.1056
     57 C           2.4564   36.1591   12.6138 C.2         1 PRO       0.0621
     58 O           1.2606   35.8079   13.1301 O.co2       1 PRO      -0.5664
     59 CB          2.7662   34.6871   10.6008 C.3         1 PRO       0.0372
     60 CG          1.4535   34.0080   10.6723 C.2         1 PRO       0.0555
     61 ND1         0.3517   34.3537    9.9842 N.pl3       1 PRO      -0.2623
     62 CD2         1.0984   32.9004   11.4396 C.2         1 PRO      -0.0276
     63 CE1        -0.6325   33.5025   10.2958 C.2         1 PRO       0.0875
     64 NE2        -0.1872   32.6091   11.1968 N.2         1 PRO      -0.3437
     65 OXT         2.8764   37.4310   12.8076 O.co2       1 PRO      -0.5664
     66 H1          7.6967   22.4522   27.7915 H           1 PRO       0.2035
     67 H2          6.3463   22.6533   28.7567 H           1 PRO       0.2035
     68 H3          7.5024   23.7315   30.4179 H           1 PRO       0.1099
     69 H4          9.8341   23.2772   30.8019 H           1 PRO       0.0347
     70 H5         10.1073   22.7882   29.1070 H           1 PRO       0.0347
     71 H6          8.7089   21.2492   31.2877 H           1 PRO       0.0320
     72 H7          9.7046   20.6413   29.9436 H           1 PRO       0.0320
     73 H8          7.7888   20.4158   28.6095 H           1 PRO       0.0814
     74 H9          6.8092   20.8777   30.0223 H           1 PRO       0.0814
     75 H10         6.5202   25.4585   29.4100 H           1 PRO       0.1886
     76 H11         6.3691   27.4596   28.6773 H           1 PRO       0.0824
     77 H12         8.2103   28.8848   28.1402 H           1 PRO       0.0491
     78 H13         9.2584   27.5400   27.7108 H           1 PRO       0.0491
     79 H14        10.7502   26.7831   29.5712 H           1 PRO       0.2386
     80 H15         7.4403   28.7260   30.9808 H           1 PRO       0.0324
     81 H16        10.9598   26.9184   32.0502 H           1 PRO       0.1149
     82 H17         8.5006   25.9494   26.2700 H           1 PRO       0.1883
     83 H18         8.4802   25.6101   24.1989 H           1 PRO       0.0800
     84 H19         6.5273   25.1237   22.8746 H           1 PRO       0.0315
     85 H20         5.4456   25.8211   24.0588 H           1 PRO       0.0315
     86 H21         5.5799   23.2726   23.8365 H           1 PRO       0.0298
     87 H22         7.2980   21.9900   24.9766 H           1 PRO       0.0232
     88 H23         8.1386   23.4582   25.4974 H           1 PRO       0.0232
     89 H24         8.0722   23.0332   23.7799 H           1 PRO       0.0232
     90 H25         4.4549   24.3952   25.7708 H           1 PRO       0.0232
     91 H26         5.9518   24.2239   26.7056 H           1 PRO       0.0232
     92 H27         5.0900   22.7896   26.1343 H           1 PRO       0.0232
     93 H28         8.2331   26.5559   22.0983 H           1 PRO       0.1884
     94 H29         9.1235   29.1689   22.3171 H           1 PRO       0.0823
     95 H30        10.0932   27.4500   20.8413 H           1 PRO       0.0606
     96 H31         9.6983   28.9345   19.9789 H           1 PRO       0.0606
     97 H32         8.2097   26.5172   20.0291 H           1 PRO       0.2097
     98 H33         8.0299   31.0348   22.0779 H           1 PRO       0.1859
     99 H34         5.3886   31.1600   20.8013 H           1 PRO       0.0632
    100 H35         5.1736   33.1945   22.3881 H           1 PRO       0.0450
    101 H36         6.6220   32.6020   23.1832 H           1 PRO       0.0450
    102 H37         6.2373   31.0198   24.9936 H           1 PRO       0.0557
    103 H38         3.2255   31.4738   22.0599 H           1 PRO       0.0557
    104 H39         4.7319   29.6698   26.3173 H           1 PRO       0.0599
    105 H40         1.7465   30.0965   23.3747 H           1 PRO       0.0599
    106 H41         2.4841   29.2112   25.5143 H           1 PRO       0.0559
    107 H42         7.8736   32.7377   20.2132 H           1 PRO       0.0839
    108 H43         6.4400   33.7207   20.5328 H           1 PRO       0.0839
    109 H44         5.2377   32.3548   18.9842 H           1 PRO       0.2036
    110 H45         6.6143   31.5493   18.5514 H           1 PRO       0.2036
    111 H46         6.3746   34.4642   18.2375 H           1 PRO       0.1099
    112 H47         8.5893   33.9033   17.8535 H           1 PRO       0.0354
    113 H48         7.8740   34.0885   16.2765 H           1 PRO       0.0354
    114 H49         9.3252   32.2450   16.0316 H           1 PRO       0.0380
    115 H50         7.7407   31.5016   16.1544 H           1 PRO       0.0380
    116 H51        11.0996   31.2346   19.2798 H           1 PRO       0.0340
    117 H52        10.3590   32.8118   18.9827 H           1 PRO       0.0340
    118 H53        11.2366   31.9769   17.6729 H           1 PRO       0.0340
    119 H54         6.3180   32.6287   15.3337 H           1 PRO       0.1884
    120 H55         4.8697   32.1045   13.8604 H           1 PRO       0.0797
    121 H56         2.5772   31.4945   14.3354 H           1 PRO       0.0277
    122 H57         2.6192   32.2927   15.9153 H           1 PRO       0.0277
    123 H58         3.6387   30.8712   15.6185 H           1 PRO       0.0277
    124 H59         3.9067   33.2165   12.2455 H           1 PRO       0.1877
    125 H60         4.2877   35.6759   11.7434 H           1 PRO       0.0750
    126 H61         3.4760   33.9996   10.1334 H           1 PRO       0.0484
    127 H62         2.6820   35.5511    9.9378 H           1 PRO       0.0484
    128 H63         0.2865   35.0894    9.3568 H           1 PRO       0.2386
    129 H64         1.7026   32.3854   12.0868 H           1 PRO       0.0324
    130 H65        -1.5781   33.5228    9.9136 H           1 PRO       0.1149
@<TRIPOS>BOND
     1     1     2   1
     2     1     7   1
     3     2     3   1
     4     2     5   1
     5     3     4   2
     6     3     8  am
     7     5     6   1
     8     6     7   1
     9     8     9   1
    10     9    10   1
    11     9    12   1
    12    10    11   2
    13    10    18  am
    14    12    13   1
    15    13    14   1
    16    13    15   2
    17    14    16   1
    18    15    17   1
    19    16    17   2
    20    18    19   1
    21    19    20   1
    22    19    22   1
    23    20    21   2
    24    20    26  am
    25    22    23   1
    26    23    24   1
    27    23    25   1
    28    26    27   1
    29    27    28   1
    30    27    30   1
    31    28    29   2
    32    28    32  am
    33    30    31   1
    34    32    33   1
    35    33    34   1
    36    33    41   1
    37    34    35   1
    38    35    36  ar
    39    35    37  ar
    40    36    38  ar
    41    37    39  ar
    42    38    40  ar
    43    39    40  ar
    44    41    42   1
    45    42    43   1
    46    43    44   1
    47    43    48   1
    48    44    45   1
    49    45    46   1
    50    46    47   1
    51    48    49   2
    52    48    50  am
    53    50    51   1
    54    51    52   1
    55    51    54   1
    56    52    53   2
    57    52    55  am
    58    55    56   1
    59    56    57   1
    60    56    59   1
    61    57    58  ar
    62    57    65  ar
    63    59    60   1
    64    60    61   1
    65    60    62   2
    66    61    63   1
    67    62    64   1
    68    63    64   2
    69     1    66   1
    70     1    67   1
    71     2    68   1
    72     5    69   1
    73     5    70   1
    74     6    71   1
    75     6    72   1
    76     7    73   1
    77     7    74   1
    78     8    75   1
    79     9    76   1
    80    12    77   1
    81    12    78   1
    82    14    79   1
    83    15    80   1
    84    16    81   1
    85    18    82   1
    86    19    83   1
    87    22    84   1
    88    22    85   1
    89    23    86   1
    90    24    87   1
    91    24    88   1
    92    24    89   1
    93    25    90   1
    94    25    91   1
    95    25    92   1
    96    26    93   1
    97    27    94   1
    98    30    95   1
    99    30    96   1
   100    31    97   1
   101    32    98   1
   102    33    99   1
   103    34   100   1
   104    34   101   1
   105    36   102   1
   106    37   103   1
   107    38   104   1
   108    39   105   1
   109    40   106   1
   110    41   107   1
   111    41   108   1
   112    42   109   1
   113    42   110   1
   114    43   111   1
   115    44   112   1
   116    44   113   1
   117    45   114   1
   118    45   115   1
   119    47   116   1
   120    47   117   1
   121    47   118   1
   122    50   119   1
   123    51   120   1
   124    54   121   1
   125    54   122   1
   126    54   123   1
   127    55   124   1
   128    56   125   1
   129    59   126   1
   130    59   127   1
   131    61   128   1
   132    62   129   1
   133    63   130   1
@<TRIPOS>SUBSTRUCTURE
     1  PRO      2

