@<TRIPOS>MOLECULE
3uri_ligand_069
   130   133
SMALL
GAST_HUCK
****
This file was generated by PARSER (from files_GN.cpp)

@<TRIPOS>ATOM
      1 N           8.1997   25.6718   28.0500 N.4         1 PRO       0.2461
      2 CA          6.8551   26.2568   27.8822 C.3         1 PRO       0.0670
      3 C           6.1034   25.7379   26.7477 C.2         1 PRO       0.2269
      4 O           6.6660   25.0669   25.8896 O.2         1 PRO      -0.3907
      5 CB          7.1488   27.7710   27.7882 C.3         1 PRO       0.0127
      6 CG          8.3377   27.9863   28.7442 C.3         1 PRO      -0.0053
      7 CD          8.9939   26.5952   28.8788 C.3         1 PRO      -0.0313
      8 N           4.8105   26.0270   26.6467 N.am        1 PRO      -0.2592
      9 CA          3.9047   25.6244   25.5989 C.3         1 PRO       0.1422
     10 C           3.8070   26.6256   24.5406 C.2         1 PRO       0.2060
     11 O           4.1875   27.7713   24.7447 O.2         1 PRO      -0.3942
     12 CB          2.5082   25.3415   26.2331 C.3         1 PRO       0.0427
     13 CG          2.5224   24.1959   27.1676 C.2         1 PRO       0.0561
     14 ND1         2.5767   22.9025   26.8227 N.pl3       1 PRO      -0.2623
     15 CD2         2.4933   24.2272   28.5596 C.2         1 PRO      -0.0276
     16 CE1         2.5797   22.1627   27.9421 C.2         1 PRO       0.0875
     17 NE2         2.5315   22.9667   29.0180 N.2         1 PRO      -0.3437
     18 N           3.3150   26.2793   23.3516 N.am        1 PRO      -0.2636
     19 CA          3.1315   27.1051   22.1836 C.3         1 PRO       0.1312
     20 C           4.3782   27.6210   21.6088 C.2         1 PRO       0.2040
     21 O           5.4541   27.4419   22.1714 O.2         1 PRO      -0.3944
     22 CB          2.0731   28.2376   22.4170 C.3         1 PRO      -0.0101
     23 CG          0.6689   27.7924   22.9442 C.3         1 PRO      -0.0425
     24 CD1        -0.1860   29.0315   23.3278 C.3         1 PRO      -0.0625
     25 CD2        -0.1093   26.9032   21.9344 C.3         1 PRO      -0.0625
     26 N           4.3526   28.2134   20.4172 N.am        1 PRO      -0.2616
     27 CA          5.4744   28.7177   19.6723 C.3         1 PRO       0.1538
     28 C           6.0778   29.8800   20.3136 C.2         1 PRO       0.2045
     29 O           7.2789   29.8864   20.5586 O.2         1 PRO      -0.3944
     30 CB          5.0264   29.0403   18.2187 C.3         1 PRO       0.0843
     31 OG          6.1206   29.5084   17.4323 O.3         1 PRO      -0.3903
     32 N           5.3354   30.9550   20.5545 N.am        1 PRO      -0.2748
     33 C1          5.7561   32.2552   21.0036 C.3         1 PRO       0.0911
     34 C2          6.4202   32.2585   22.4116 C.3         1 PRO       0.0089
     35 C3          5.7312   31.5312   23.5178 C.ar        1 PRO      -0.0406
     36 C4          6.5076   30.9140   24.5357 C.ar        1 PRO      -0.0603
     37 C5          4.3235   31.5707   23.6745 C.ar        1 PRO      -0.0603
     38 C6          5.8980   30.3896   25.6886 C.ar        1 PRO      -0.0686
     39 C7          3.7130   31.0307   24.8237 C.ar        1 PRO      -0.0686
     40 C8          4.4987   30.4425   25.8305 C.ar        1 PRO      -0.0687
     41 C9          6.6606   32.9887   19.9578 C.3         1 PRO      -0.0062
     42 N2          6.1535   32.8142   18.5775 N.4         1 PRO       0.2479
     43 C10         6.6278   33.7477   17.5081 C.3         1 PRO       0.0676
     44 C11         8.1859   33.7435   17.3214 C.3         1 PRO       0.0169
     45 C12         8.8362   32.4416   16.7726 C.3         1 PRO       0.0007
     46 SD          9.1680   31.1814   18.0294 S.3         1 PRO      -0.1638
     47 C13        10.6938   31.8722   18.7155 C.3         1 PRO      -0.0181
     48 C           5.8963   33.5202   16.2559 C.2         1 PRO       0.2268
     49 O           4.9849   32.7001   16.2194 O.2         1 PRO      -0.3907
     50 N           6.1841   34.2259   15.1656 N.am        1 PRO      -0.2613
     51 CA          5.5549   34.1807   13.8670 C.3         1 PRO       0.1283
     52 C           4.2281   34.8053   13.8116 C.2         1 PRO       0.2032
     53 O           3.7537   35.3406   14.8069 O.2         1 PRO      -0.3944
     54 CB          5.5966   32.7544   13.2438 C.3         1 PRO      -0.0244
     55 N           3.6214   34.9451   12.6384 N.am        1 PRO      -0.2677
     56 CA          2.5696   35.8668   12.2974 C.3         1 PRO       0.1056
     57 C           1.4401   35.8909   13.2504 C.2         1 PRO       0.0621
     58 O           0.8998   34.7356   13.7066 O.co2       1 PRO      -0.5664
     59 CB          2.0781   35.6290   10.8380 C.3         1 PRO       0.0372
     60 CG          1.1335   34.5072   10.6457 C.2         1 PRO       0.0555
     61 ND1         0.0238   34.5564    9.8986 N.pl3       1 PRO      -0.2623
     62 CD2         1.1864   33.2220   11.1793 C.2         1 PRO      -0.0276
     63 CE1        -0.5685   33.3533    9.9283 C.2         1 PRO       0.0875
     64 NE2         0.1343   32.5253   10.7218 N.2         1 PRO      -0.3437
     65 OXT         1.0617   37.0556   13.8222 O.co2       1 PRO      -0.5664
     66 H1          8.6447   25.5812   27.1344 H           1 PRO       0.2035
     67 H2          8.1384   24.7511   28.4925 H           1 PRO       0.2035
     68 H3          6.2896   26.0460   28.7973 H           1 PRO       0.1099
     69 H4          6.2845   28.3741   28.0751 H           1 PRO       0.0347
     70 H5          7.4471   28.0414   26.7722 H           1 PRO       0.0347
     71 H6          7.9888   28.3361   29.7187 H           1 PRO       0.0320
     72 H7          9.0407   28.7204   28.3375 H           1 PRO       0.0320
     73 H8         10.0283   26.6051   28.5282 H           1 PRO       0.0814
     74 H9          8.9748   26.2603   29.9197 H           1 PRO       0.0814
     75 H10         4.4341   26.5764   27.3544 H           1 PRO       0.1886
     76 H11         4.2657   24.6901   25.1518 H           1 PRO       0.0824
     77 H12         1.7709   25.1178   25.4548 H           1 PRO       0.0491
     78 H13         2.1612   26.2337   26.7646 H           1 PRO       0.0491
     79 H14         2.5977   22.5579   25.9145 H           1 PRO       0.2386
     80 H15         2.4563   25.0648   29.1424 H           1 PRO       0.0324
     81 H16         2.6108   21.1431   27.9694 H           1 PRO       0.1149
     82 H17         3.0388   25.3538   23.2637 H           1 PRO       0.1883
     83 H18         2.7199   26.4314   21.4283 H           1 PRO       0.0800
     84 H19         1.9233   28.7865   21.4833 H           1 PRO       0.0315
     85 H20         2.5031   28.9473   23.1282 H           1 PRO       0.0315
     86 H21         0.8078   27.2069   23.8593 H           1 PRO       0.0298
     87 H22        -1.1509   28.7221   23.7338 H           1 PRO       0.0232
     88 H23        -0.3617   29.6625   22.4538 H           1 PRO       0.0232
     89 H24         0.3224   29.6253   24.0897 H           1 PRO       0.0232
     90 H25         0.4174   25.9657   21.7552 H           1 PRO       0.0232
     91 H26        -0.2370   27.4229   20.9824 H           1 PRO       0.0232
     92 H27        -1.0977   26.6553   22.3282 H           1 PRO       0.0232
     93 H28         3.4867   28.2796   19.9842 H           1 PRO       0.1884
     94 H29         6.2154   27.9098   19.5944 H           1 PRO       0.0823
     95 H30         4.2414   29.8012   18.2171 H           1 PRO       0.0606
     96 H31         4.6310   28.1394   17.7403 H           1 PRO       0.0606
     97 H32         5.7486   29.6694   16.5404 H           1 PRO       0.2097
     98 H33         4.3868   30.8671   20.3543 H           1 PRO       0.1859
     99 H34         4.8413   32.8472   21.0966 H           1 PRO       0.0632
    100 H35         6.5033   33.2997   22.7420 H           1 PRO       0.0450
    101 H36         7.4373   31.8765   22.3074 H           1 PRO       0.0450
    102 H37         7.5312   30.9030   24.4737 H           1 PRO       0.0557
    103 H38         3.7354   32.0265   22.9746 H           1 PRO       0.0557
    104 H39         6.4753   29.9861   26.4350 H           1 PRO       0.0599
    105 H40         2.6955   31.0781   24.9332 H           1 PRO       0.0599
    106 H41         4.0589   30.0665   26.6761 H           1 PRO       0.0559
    107 H42         7.6786   32.6026   20.0086 H           1 PRO       0.0839
    108 H43         6.6886   34.0512   20.2115 H           1 PRO       0.0839
    109 H44         5.1353   32.9050   18.6305 H           1 PRO       0.2036
    110 H45         6.3631   31.8604   18.2811 H           1 PRO       0.2036
    111 H46         6.3599   34.7572   17.8322 H           1 PRO       0.1099
    112 H47         8.6536   34.0216   18.2647 H           1 PRO       0.0354
    113 H48         8.4420   34.5538   16.6340 H           1 PRO       0.0354
    114 H49         9.7806   32.6814   16.2732 H           1 PRO       0.0380
    115 H50         8.1858   31.9982   16.0173 H           1 PRO       0.0380
    116 H51        11.0516   31.2211   19.5128 H           1 PRO       0.0340
    117 H52        10.5160   32.8622   19.1326 H           1 PRO       0.0340
    118 H53        11.4599   31.9365   17.9424 H           1 PRO       0.0340
    119 H54         6.9175   34.8564   15.2462 H           1 PRO       0.1884
    120 H55         6.1894   34.8064   13.2331 H           1 PRO       0.0797
    121 H56         5.3701   32.8010   12.1761 H           1 PRO       0.0277
    122 H57         4.8685   32.0938   13.7181 H           1 PRO       0.0277
    123 H58         6.5922   32.3175   13.3516 H           1 PRO       0.0277
    124 H59         4.0241   34.4702   11.8912 H           1 PRO       0.1877
    125 H60         3.0346   36.8605   12.3100 H           1 PRO       0.0750
    126 H61         2.9467   35.4513   10.1992 H           1 PRO       0.0484
    127 H62         1.5984   36.5433   10.4788 H           1 PRO       0.0484
    128 H63        -0.2898   35.3298    9.4031 H           1 PRO       0.2386
    129 H64         1.8848   32.8665   11.8335 H           1 PRO       0.0324
    130 H65        -1.4143   33.1021    9.4148 H           1 PRO       0.1149
@<TRIPOS>BOND
     1     1     2   1
     2     1     7   1
     3     2     3   1
     4     2     5   1
     5     3     4   2
     6     3     8  am
     7     5     6   1
     8     6     7   1
     9     8     9   1
    10     9    10   1
    11     9    12   1
    12    10    11   2
    13    10    18  am
    14    12    13   1
    15    13    14   1
    16    13    15   2
    17    14    16   1
    18    15    17   1
    19    16    17   2
    20    18    19   1
    21    19    20   1
    22    19    22   1
    23    20    21   2
    24    20    26  am
    25    22    23   1
    26    23    24   1
    27    23    25   1
    28    26    27   1
    29    27    28   1
    30    27    30   1
    31    28    29   2
    32    28    32  am
    33    30    31   1
    34    32    33   1
    35    33    34   1
    36    33    41   1
    37    34    35   1
    38    35    36  ar
    39    35    37  ar
    40    36    38  ar
    41    37    39  ar
    42    38    40  ar
    43    39    40  ar
    44    41    42   1
    45    42    43   1
    46    43    44   1
    47    43    48   1
    48    44    45   1
    49    45    46   1
    50    46    47   1
    51    48    49   2
    52    48    50  am
    53    50    51   1
    54    51    52   1
    55    51    54   1
    56    52    53   2
    57    52    55  am
    58    55    56   1
    59    56    57   1
    60    56    59   1
    61    57    58  ar
    62    57    65  ar
    63    59    60   1
    64    60    61   1
    65    60    62   2
    66    61    63   1
    67    62    64   1
    68    63    64   2
    69     1    66   1
    70     1    67   1
    71     2    68   1
    72     5    69   1
    73     5    70   1
    74     6    71   1
    75     6    72   1
    76     7    73   1
    77     7    74   1
    78     8    75   1
    79     9    76   1
    80    12    77   1
    81    12    78   1
    82    14    79   1
    83    15    80   1
    84    16    81   1
    85    18    82   1
    86    19    83   1
    87    22    84   1
    88    22    85   1
    89    23    86   1
    90    24    87   1
    91    24    88   1
    92    24    89   1
    93    25    90   1
    94    25    91   1
    95    25    92   1
    96    26    93   1
    97    27    94   1
    98    30    95   1
    99    30    96   1
   100    31    97   1
   101    32    98   1
   102    33    99   1
   103    34   100   1
   104    34   101   1
   105    36   102   1
   106    37   103   1
   107    38   104   1
   108    39   105   1
   109    40   106   1
   110    41   107   1
   111    41   108   1
   112    42   109   1
   113    42   110   1
   114    43   111   1
   115    44   112   1
   116    44   113   1
   117    45   114   1
   118    45   115   1
   119    47   116   1
   120    47   117   1
   121    47   118   1
   122    50   119   1
   123    51   120   1
   124    54   121   1
   125    54   122   1
   126    54   123   1
   127    55   124   1
   128    56   125   1
   129    59   126   1
   130    59   127   1
   131    61   128   1
   132    62   129   1
   133    63   130   1
@<TRIPOS>SUBSTRUCTURE
     1  PRO      2

