@<TRIPOS>MOLECULE
3uri_ligand_060
   130   133
SMALL
GAST_HUCK
****
This file was generated by PARSER (from files_GN.cpp)

@<TRIPOS>ATOM
      1 N           3.1796   25.5921   19.2605 N.4         1 PRO       0.2461
      2 CA          2.1463   26.4499   18.6509 C.3         1 PRO       0.0670
      3 C           2.2823   27.8267   19.0905 C.2         1 PRO       0.2269
      4 O           1.4092   28.3745   19.7555 O.2         1 PRO      -0.3907
      5 CB          0.8159   25.7298   18.9595 C.3         1 PRO       0.0127
      6 CG          1.2052   24.2510   18.8496 C.3         1 PRO      -0.0053
      7 CD          2.6559   24.2199   19.3652 C.3         1 PRO      -0.0313
      8 N           3.3588   28.4763   18.6833 N.am        1 PRO      -0.2592
      9 CA          3.6891   29.8532   18.8835 C.3         1 PRO       0.1422
     10 C           3.3452   30.5342   17.6444 C.2         1 PRO       0.2060
     11 O           4.2217   31.1021   16.9988 O.2         1 PRO      -0.3942
     12 CB          5.1672   29.9697   19.3904 C.3         1 PRO       0.0427
     13 CG          6.1225   28.9821   18.8213 C.2         1 PRO       0.0561
     14 ND1         6.4116   28.7939   17.5267 N.pl3       1 PRO      -0.2623
     15 CD2         6.8555   28.0275   19.5211 C.2         1 PRO      -0.0276
     16 CE1         7.2584   27.7606   17.4213 C.2         1 PRO       0.0875
     17 NE2         7.5453   27.2844   18.6420 N.2         1 PRO      -0.3437
     18 N           2.0634   30.6172   17.2735 N.am        1 PRO      -0.2636
     19 CA          1.5133   31.1708   16.0574 C.3         1 PRO       0.1312
     20 C           2.2497   32.3645   15.6598 C.2         1 PRO       0.2040
     21 O           2.2760   33.3190   16.4308 O.2         1 PRO      -0.3944
     22 CB         -0.0088   31.5089   16.2214 C.3         1 PRO      -0.0101
     23 CG         -1.0187   30.3210   16.1134 C.3         1 PRO      -0.0425
     24 CD1        -2.4715   30.8216   16.3575 C.3         1 PRO      -0.0625
     25 CD2        -0.9458   29.5922   14.7414 C.3         1 PRO      -0.0625
     26 N           3.0816   32.2914   14.6219 N.am        1 PRO      -0.2616
     27 CA          4.1639   33.1946   14.3505 C.3         1 PRO       0.1538
     28 C           3.6148   34.4294   13.8192 C.2         1 PRO       0.2045
     29 O           3.4357   35.3651   14.5916 O.2         1 PRO      -0.3944
     30 CB          5.2594   32.5193   13.4645 C.3         1 PRO       0.0843
     31 OG          5.4517   33.1114   12.1831 O.3         1 PRO      -0.3903
     32 N           3.2212   34.4911   12.5471 N.am        1 PRO      -0.2748
     33 C1          2.6826   35.6229   11.8484 C.3         1 PRO       0.0911
     34 C2          1.1979   35.8948   12.2841 C.3         1 PRO       0.0089
     35 C3          0.1067   34.9677   11.8619 C.ar        1 PRO      -0.0406
     36 C4         -1.1346   35.0628   12.5389 C.ar        1 PRO      -0.0603
     37 C5          0.1952   34.0821   10.7587 C.ar        1 PRO      -0.0603
     38 C6         -2.2433   34.3019   12.1340 C.ar        1 PRO      -0.0686
     39 C7         -0.9184   33.3286   10.3455 C.ar        1 PRO      -0.0686
     40 C8         -2.1391   33.4358   11.0312 C.ar        1 PRO      -0.0687
     41 C9          3.5733   36.9028   11.9588 C.3         1 PRO      -0.0062
     42 N2          3.3317   37.7888   10.7999 N.4         1 PRO       0.2479
     43 C10         3.6184   39.2332   10.9581 C.3         1 PRO       0.0676
     44 C11         5.1299   39.5476   10.7258 C.3         1 PRO       0.0169
     45 C12         5.4769   41.0554   10.6171 C.3         1 PRO       0.0007
     46 SD          5.5077   41.8905   12.2268 S.3         1 PRO      -0.1638
     47 C13         4.5523   43.3625   11.7942 C.3         1 PRO      -0.0181
     48 C           2.7237   39.9023   10.0302 C.2         1 PRO       0.2268
     49 O           2.5284   39.3958    8.9309 O.2         1 PRO      -0.3907
     50 N           2.0236   40.9546   10.4336 N.am        1 PRO      -0.2613
     51 CA          0.9837   41.6365    9.7141 C.3         1 PRO       0.1283
     52 C           1.1444   43.0683    9.8986 C.2         1 PRO       0.2032
     53 O           1.4641   43.7520    8.9349 O.2         1 PRO      -0.3944
     54 CB         -0.3940   41.1254   10.2056 C.3         1 PRO      -0.0244
     55 N           0.9807   43.6162   11.0992 N.am        1 PRO      -0.2677
     56 CA          1.1206   45.0042   11.4297 C.3         1 PRO       0.1056
     57 C           1.3019   45.0865   12.9015 C.2         1 PRO       0.0621
     58 O           0.5896   45.9289   13.6928 O.co2       1 PRO      -0.5664
     59 CB         -0.0885   45.8288   10.8880 C.3         1 PRO       0.0372
     60 CG          0.0864   47.2877   11.0251 C.2         1 PRO       0.0555
     61 ND1        -0.6166   48.0979   11.8265 N.pl3       1 PRO      -0.2623
     62 CD2         0.9962   48.0969   10.3505 C.2         1 PRO      -0.0276
     63 CE1        -0.1603   49.3486   11.6695 C.2         1 PRO       0.0875
     64 NE2         0.8303   49.3643   10.7621 N.2         1 PRO      -0.3437
     65 OXT         2.2129   44.2876   13.5123 O.co2       1 PRO      -0.5664
     66 H1          3.4055   25.9328   20.1982 H           1 PRO       0.2035
     67 H2          4.0213   25.6027   18.6818 H           1 PRO       0.2035
     68 H3          2.2920   26.4339   17.5636 H           1 PRO       0.1099
     69 H4          0.0325   26.0024   18.2448 H           1 PRO       0.0347
     70 H5          0.4725   25.9508   19.9767 H           1 PRO       0.0347
     71 H6          1.1724   23.9348   17.8052 H           1 PRO       0.0320
     72 H7          0.5456   23.6151   19.4419 H           1 PRO       0.0320
     73 H8          2.6859   23.9098   20.4141 H           1 PRO       0.0814
     74 H9          3.2719   23.5343   18.7782 H           1 PRO       0.0814
     75 H10         3.9808   27.9727   18.1339 H           1 PRO       0.1886
     76 H11         3.0674   30.2999   19.6683 H           1 PRO       0.0824
     77 H12         5.1565   29.8530   20.4783 H           1 PRO       0.0491
     78 H13         5.5455   30.9748   19.1869 H           1 PRO       0.0491
     79 H14         6.0552   29.2915   16.7727 H           1 PRO       0.2386
     80 H15         6.8677   27.8941   20.5335 H           1 PRO       0.0324
     81 H16         7.6149   27.3867   16.5444 H           1 PRO       0.1149
     82 H17         1.4200   30.2476   17.9000 H           1 PRO       0.1883
     83 H18         1.6158   30.4060   15.2815 H           1 PRO       0.0800
     84 H19        -0.3005   32.2588   15.4784 H           1 PRO       0.0315
     85 H20        -0.1257   31.9747   17.2052 H           1 PRO       0.0315
     86 H21        -0.7842   29.5948   16.8997 H           1 PRO       0.0298
     87 H22        -3.1784   29.9908   16.3098 H           1 PRO       0.0232
     88 H23        -2.7554   31.5597   15.6055 H           1 PRO       0.0232
     89 H24        -2.5599   31.2791   17.3444 H           1 PRO       0.0232
     90 H25         0.0139   29.0933   14.6132 H           1 PRO       0.0232
     91 H26        -1.0854   30.3016   13.9240 H           1 PRO       0.0232
     92 H27        -1.7212   28.8273   14.6747 H           1 PRO       0.0232
     93 H28         3.0574   31.4639   14.1148 H           1 PRO       0.1884
     94 H29         4.6551   33.3967   15.3120 H           1 PRO       0.0823
     95 H30         5.0178   31.4674   13.3085 H           1 PRO       0.0606
     96 H31         6.2186   32.5595   13.9700 H           1 PRO       0.0606
     97 H32         5.5640   32.3488   11.5575 H           1 PRO       0.2097
     98 H33         3.3590   33.6924   12.0092 H           1 PRO       0.1859
     99 H34         2.6973   35.3527   10.7878 H           1 PRO       0.0632
    100 H35         0.8986   36.8850   11.9188 H           1 PRO       0.0450
    101 H36         1.1990   35.9587   13.3776 H           1 PRO       0.0450
    102 H37        -1.2448   35.7033   13.3258 H           1 PRO       0.0557
    103 H38         1.0527   33.9840   10.2191 H           1 PRO       0.0557
    104 H39        -3.1365   34.3924   12.6287 H           1 PRO       0.0599
    105 H40        -0.8459   32.7099    9.5341 H           1 PRO       0.0599
    106 H41        -2.9512   32.8949   10.7246 H           1 PRO       0.0559
    107 H42         4.6317   36.6239   11.9672 H           1 PRO       0.0839
    108 H43         3.3418   37.4149   12.8963 H           1 PRO       0.0839
    109 H44         2.3456   37.6946   10.5499 H           1 PRO       0.2036
    110 H45         3.8865   37.4201   10.0289 H           1 PRO       0.2036
    111 H46         3.3697   39.5463   11.9804 H           1 PRO       0.1099
    112 H47         5.4568   39.0571    9.8028 H           1 PRO       0.0354
    113 H48         5.7132   39.1088   11.5419 H           1 PRO       0.0354
    114 H49         4.7632   41.5285    9.9459 H           1 PRO       0.0380
    115 H50         6.4683   41.1591   10.1767 H           1 PRO       0.0380
    116 H51         4.5798   44.0635   12.6285 H           1 PRO       0.0340
    117 H52         3.5154   43.0804   11.5989 H           1 PRO       0.0340
    118 H53         4.9705   43.8477   10.9107 H           1 PRO       0.0340
    119 H54         2.2080   41.2838   11.3340 H           1 PRO       0.1884
    120 H55         1.0359   41.3987    8.6472 H           1 PRO       0.0797
    121 H56        -1.1987   41.6556    9.6942 H           1 PRO       0.0277
    122 H57        -0.5068   41.2698   11.2834 H           1 PRO       0.0277
    123 H58        -0.4951   40.0578    9.9907 H           1 PRO       0.0277
    124 H59         0.7684   43.0018   11.8297 H           1 PRO       0.1877
    125 H60         2.0371   45.3753   10.9847 H           1 PRO       0.0750
    126 H61        -1.0044   45.5220   11.4088 H           1 PRO       0.0484
    127 H62        -0.2418   45.6239    9.8281 H           1 PRO       0.0484
    128 H63        -1.3264   47.8237   12.4238 H           1 PRO       0.2386
    129 H64         1.6785   47.7882    9.6518 H           1 PRO       0.0324
    130 H65        -0.5133   50.1672   12.1654 H           1 PRO       0.1149
@<TRIPOS>BOND
     1     1     2   1
     2     1     7   1
     3     2     3   1
     4     2     5   1
     5     3     4   2
     6     3     8  am
     7     5     6   1
     8     6     7   1
     9     8     9   1
    10     9    10   1
    11     9    12   1
    12    10    11   2
    13    10    18  am
    14    12    13   1
    15    13    14   1
    16    13    15   2
    17    14    16   1
    18    15    17   1
    19    16    17   2
    20    18    19   1
    21    19    20   1
    22    19    22   1
    23    20    21   2
    24    20    26  am
    25    22    23   1
    26    23    24   1
    27    23    25   1
    28    26    27   1
    29    27    28   1
    30    27    30   1
    31    28    29   2
    32    28    32  am
    33    30    31   1
    34    32    33   1
    35    33    34   1
    36    33    41   1
    37    34    35   1
    38    35    36  ar
    39    35    37  ar
    40    36    38  ar
    41    37    39  ar
    42    38    40  ar
    43    39    40  ar
    44    41    42   1
    45    42    43   1
    46    43    44   1
    47    43    48   1
    48    44    45   1
    49    45    46   1
    50    46    47   1
    51    48    49   2
    52    48    50  am
    53    50    51   1
    54    51    52   1
    55    51    54   1
    56    52    53   2
    57    52    55  am
    58    55    56   1
    59    56    57   1
    60    56    59   1
    61    57    58  ar
    62    57    65  ar
    63    59    60   1
    64    60    61   1
    65    60    62   2
    66    61    63   1
    67    62    64   1
    68    63    64   2
    69     1    66   1
    70     1    67   1
    71     2    68   1
    72     5    69   1
    73     5    70   1
    74     6    71   1
    75     6    72   1
    76     7    73   1
    77     7    74   1
    78     8    75   1
    79     9    76   1
    80    12    77   1
    81    12    78   1
    82    14    79   1
    83    15    80   1
    84    16    81   1
    85    18    82   1
    86    19    83   1
    87    22    84   1
    88    22    85   1
    89    23    86   1
    90    24    87   1
    91    24    88   1
    92    24    89   1
    93    25    90   1
    94    25    91   1
    95    25    92   1
    96    26    93   1
    97    27    94   1
    98    30    95   1
    99    30    96   1
   100    31    97   1
   101    32    98   1
   102    33    99   1
   103    34   100   1
   104    34   101   1
   105    36   102   1
   106    37   103   1
   107    38   104   1
   108    39   105   1
   109    40   106   1
   110    41   107   1
   111    41   108   1
   112    42   109   1
   113    42   110   1
   114    43   111   1
   115    44   112   1
   116    44   113   1
   117    45   114   1
   118    45   115   1
   119    47   116   1
   120    47   117   1
   121    47   118   1
   122    50   119   1
   123    51   120   1
   124    54   121   1
   125    54   122   1
   126    54   123   1
   127    55   124   1
   128    56   125   1
   129    59   126   1
   130    59   127   1
   131    61   128   1
   132    62   129   1
   133    63   130   1
@<TRIPOS>SUBSTRUCTURE
     1  PRO      2

