@<TRIPOS>MOLECULE
3uri_ligand_071
   130   133
SMALL
GAST_HUCK
****
This file was generated by PARSER (from files_GN.cpp)

@<TRIPOS>ATOM
      1 N          -2.9886   24.7386   22.4741 N.4         1 PRO       0.2461
      2 CA         -1.9887   25.1033   21.4541 C.3         1 PRO       0.0670
      3 C          -0.9835   26.0059   21.9991 C.2         1 PRO       0.2269
      4 O          -0.8675   27.1513   21.5818 O.2         1 PRO      -0.3907
      5 CB         -2.8609   25.6237   20.2898 C.3         1 PRO       0.0127
      6 CG         -4.0823   24.6886   20.3187 C.3         1 PRO      -0.0053
      7 CD         -4.1893   24.2351   21.7873 C.3         1 PRO      -0.0313
      8 N          -0.1675   25.5357   22.9354 N.am        1 PRO      -0.2592
      9 CA          0.8996   26.2321   23.6196 C.3         1 PRO       0.1422
     10 C           2.2010   25.9060   23.0256 C.2         1 PRO       0.2060
     11 O           2.2406   25.2216   22.0080 O.2         1 PRO      -0.3942
     12 CB          0.7524   25.8678   25.1321 C.3         1 PRO       0.0427
     13 CG          1.2774   26.8720   26.0802 C.2         1 PRO       0.0561
     14 ND1         0.9040   28.1554   26.1472 N.pl3       1 PRO      -0.2623
     15 CD2         2.1378   26.6592   27.1539 C.2         1 PRO      -0.0276
     16 CE1         1.5028   28.7173   27.2086 C.2         1 PRO       0.0875
     17 NE2         2.2583   27.8055   27.8374 N.2         1 PRO      -0.3437
     18 N           3.3277   26.4171   23.5156 N.am        1 PRO      -0.2636
     19 CA          4.6672   26.2501   22.9952 C.3         1 PRO       0.1312
     20 C           4.8943   26.9199   21.7171 C.2         1 PRO       0.2040
     21 O           3.9507   27.3183   21.0417 O.2         1 PRO      -0.3944
     22 CB          5.1259   24.7407   23.0217 C.3         1 PRO      -0.0101
     23 CG          5.5440   24.1588   24.4071 C.3         1 PRO      -0.0425
     24 CD1         7.0878   24.1663   24.6194 C.3         1 PRO      -0.0625
     25 CD2         4.8033   24.8139   25.6068 C.3         1 PRO      -0.0625
     26 N           6.1469   27.1555   21.3099 N.am        1 PRO      -0.2616
     27 CA          6.6221   27.8062   20.1191 C.3         1 PRO       0.1538
     28 C           6.8938   29.2205   20.3607 C.2         1 PRO       0.2045
     29 O           8.0501   29.6191   20.2751 O.2         1 PRO      -0.3944
     30 CB          5.7473   27.5508   18.8565 C.3         1 PRO       0.0843
     31 OG          6.5007   27.7213   17.6579 O.3         1 PRO      -0.3903
     32 N           5.9134   30.0527   20.6974 N.am        1 PRO      -0.2748
     33 C1          6.0087   31.4354   21.0841 C.3         1 PRO       0.0911
     34 C2          6.7613   31.6297   22.4384 C.3         1 PRO       0.0089
     35 C3          6.4107   30.6488   23.5046 C.ar        1 PRO      -0.0406
     36 C4          7.2934   29.5952   23.8402 C.ar        1 PRO      -0.0603
     37 C5          5.2079   30.7805   24.2379 C.ar        1 PRO      -0.0603
     38 C6          6.9985   28.7164   24.8964 C.ar        1 PRO      -0.0686
     39 C7          4.9007   29.8894   25.2833 C.ar        1 PRO      -0.0686
     40 C8          5.7984   28.8584   25.6140 C.ar        1 PRO      -0.0687
     41 C9          6.5997   32.3627   19.9785 C.3         1 PRO      -0.0062
     42 N2          5.8568   32.2980   18.6902 N.4         1 PRO       0.2479
     43 C10         5.7754   33.5462   17.8681 C.3         1 PRO       0.0676
     44 C11         7.0901   34.0910   17.1811 C.3         1 PRO       0.0169
     45 C12         8.4123   33.2957   17.3227 C.3         1 PRO       0.0007
     46 SD          8.3223   31.5247   16.9461 S.3         1 PRO      -0.1638
     47 C13         8.8194   31.5706   15.2066 C.3         1 PRO      -0.0181
     48 C           4.6855   33.3543   16.9051 C.2         1 PRO       0.2268
     49 O           3.5766   33.8243   17.1539 O.2         1 PRO      -0.3907
     50 N           4.9049   32.7330   15.7458 N.am        1 PRO      -0.2613
     51 CA          4.0296   32.6572   14.6010 C.3         1 PRO       0.1283
     52 C           3.6605   33.9551   14.0309 C.2         1 PRO       0.2032
     53 O           3.6460   34.9587   14.7352 O.2         1 PRO      -0.3944
     54 CB          2.7881   31.7728   14.9107 C.3         1 PRO      -0.0244
     55 N           3.3583   34.0583   12.7372 N.am        1 PRO      -0.2677
     56 CA          2.9009   35.2366   12.0528 C.3         1 PRO       0.1056
     57 C           2.1863   36.1686   12.9613 C.2         1 PRO       0.0621
     58 O           0.9661   35.8611   13.4549 O.co2       1 PRO      -0.5664
     59 CB          2.0282   34.8801   10.8108 C.3         1 PRO       0.0372
     60 CG          0.6274   34.4988   11.0997 C.2         1 PRO       0.0555
     61 ND1        -0.4402   35.3005   10.9582 N.pl3       1 PRO      -0.2623
     62 CD2         0.1416   33.2887   11.5832 C.2         1 PRO      -0.0276
     63 CE1        -1.5314   34.6259   11.3498 C.2         1 PRO       0.0875
     64 NE2        -1.1872   33.3867   11.7350 N.2         1 PRO      -0.3437
     65 OXT         2.7713   37.3130   13.3765 O.co2       1 PRO      -0.5664
     66 H1         -3.2409   25.5774   23.0067 H           1 PRO       0.2035
     67 H2         -2.6096   24.0340   23.1132 H           1 PRO       0.2035
     68 H3         -1.4798   24.1922   21.1184 H           1 PRO       0.1099
     69 H4         -2.3334   25.5741   19.3335 H           1 PRO       0.0347
     70 H5         -3.1860   26.6529   20.4720 H           1 PRO       0.0347
     71 H6         -3.9076   23.8263   19.6691 H           1 PRO       0.0320
     72 H7         -4.9857   25.2056   19.9862 H           1 PRO       0.0320
     73 H8         -5.0762   24.6530   22.2657 H           1 PRO       0.0814
     74 H9         -4.2265   23.1473   21.8600 H           1 PRO       0.0814
     75 H10        -0.2762   24.5975   23.1685 H           1 PRO       0.1886
     76 H11         0.7559   27.3119   23.5066 H           1 PRO       0.0824
     77 H12         1.2136   24.8936   25.3206 H           1 PRO       0.0491
     78 H13        -0.3104   25.7702   25.3834 H           1 PRO       0.0491
     79 H14         0.2868   28.5992   25.5452 H           1 PRO       0.2386
     80 H15         2.5716   25.7709   27.4109 H           1 PRO       0.0324
     81 H16         1.3856   29.6878   27.4992 H           1 PRO       0.1149
     82 H17         3.2445   26.9762   24.3018 H           1 PRO       0.1883
     83 H18         5.3084   26.7854   23.6936 H           1 PRO       0.0800
     84 H19         5.9661   24.5838   22.3415 H           1 PRO       0.0315
     85 H20         4.3268   24.1093   22.6336 H           1 PRO       0.0315
     86 H21         5.2425   23.1012   24.4116 H           1 PRO       0.0298
     87 H22         7.3437   23.6968   25.5715 H           1 PRO       0.0232
     88 H23         7.4792   25.1838   24.6164 H           1 PRO       0.0232
     89 H24         7.5775   23.6025   23.8228 H           1 PRO       0.0232
     90 H25         3.7274   24.8233   25.4199 H           1 PRO       0.0232
     91 H26         5.1447   25.8378   25.7623 H           1 PRO       0.0232
     92 H27         4.9805   24.2460   26.5216 H           1 PRO       0.0232
     93 H28         6.8434   26.8137   21.8956 H           1 PRO       0.1884
     94 H29         7.5781   27.3060   19.9128 H           1 PRO       0.0823
     95 H30         4.8991   28.2360   18.8211 H           1 PRO       0.0606
     96 H31         5.3568   26.5290   18.8741 H           1 PRO       0.0606
     97 H32         6.8781   26.8316   17.4726 H           1 PRO       0.2097
     98 H33         5.0238   29.6689   20.7315 H           1 PRO       0.1859
     99 H34         4.9753   31.7684   21.2372 H           1 PRO       0.0632
    100 H35         6.5433   32.6268   22.8260 H           1 PRO       0.0450
    101 H36         7.8356   31.6075   22.2466 H           1 PRO       0.0450
    102 H37         8.1628   29.4634   23.3213 H           1 PRO       0.0557
    103 H38         4.5543   31.5395   24.0275 H           1 PRO       0.0557
    104 H39         7.6491   27.9648   25.1380 H           1 PRO       0.0599
    105 H40         4.0294   29.9974   25.8039 H           1 PRO       0.0599
    106 H41         5.5845   28.2177   26.3774 H           1 PRO       0.0559
    107 H42         7.6406   32.0843   19.8169 H           1 PRO       0.0839
    108 H43         6.5945   33.3858   20.3706 H           1 PRO       0.0839
    109 H44         4.9012   32.0409   18.9308 H           1 PRO       0.2036
    110 H45         6.2437   31.5457   18.1224 H           1 PRO       0.2036
    111 H46         5.4366   34.3397   18.5531 H           1 PRO       0.1099
    112 H47         7.2870   35.0806   17.5906 H           1 PRO       0.0354
    113 H48         6.9341   34.2558   16.1149 H           1 PRO       0.0354
    114 H49         8.7951   33.4116   18.3343 H           1 PRO       0.0380
    115 H50         9.1625   33.7403   16.6733 H           1 PRO       0.0380
    116 H51         8.8860   30.5466   14.8412 H           1 PRO       0.0340
    117 H52         9.7979   32.0424   15.1080 H           1 PRO       0.0340
    118 H53         8.0853   32.1177   14.6086 H           1 PRO       0.0340
    119 H54         5.7866   32.3448   15.6310 H           1 PRO       0.1884
    120 H55         4.6032   32.1352   13.8307 H           1 PRO       0.0797
    121 H56         2.2609   31.5184   13.9889 H           1 PRO       0.0277
    122 H57         2.0900   32.2911   15.5740 H           1 PRO       0.0277
    123 H58         3.0994   30.8414   15.3878 H           1 PRO       0.0277
    124 H59         3.4719   33.2584   12.2022 H           1 PRO       0.1877
    125 H60         3.7897   35.7477   11.6673 H           1 PRO       0.0750
    126 H61         2.4982   34.0631   10.2568 H           1 PRO       0.0484
    127 H62         2.0162   35.7469   10.1435 H           1 PRO       0.0484
    128 H63        -0.4241   36.2181   10.6438 H           1 PRO       0.2386
    129 H64         0.6933   32.4552   11.7886 H           1 PRO       0.0324
    130 H65        -2.4834   35.0015   11.3587 H           1 PRO       0.1149
@<TRIPOS>BOND
     1     1     2   1
     2     1     7   1
     3     2     3   1
     4     2     5   1
     5     3     4   2
     6     3     8  am
     7     5     6   1
     8     6     7   1
     9     8     9   1
    10     9    10   1
    11     9    12   1
    12    10    11   2
    13    10    18  am
    14    12    13   1
    15    13    14   1
    16    13    15   2
    17    14    16   1
    18    15    17   1
    19    16    17   2
    20    18    19   1
    21    19    20   1
    22    19    22   1
    23    20    21   2
    24    20    26  am
    25    22    23   1
    26    23    24   1
    27    23    25   1
    28    26    27   1
    29    27    28   1
    30    27    30   1
    31    28    29   2
    32    28    32  am
    33    30    31   1
    34    32    33   1
    35    33    34   1
    36    33    41   1
    37    34    35   1
    38    35    36  ar
    39    35    37  ar
    40    36    38  ar
    41    37    39  ar
    42    38    40  ar
    43    39    40  ar
    44    41    42   1
    45    42    43   1
    46    43    44   1
    47    43    48   1
    48    44    45   1
    49    45    46   1
    50    46    47   1
    51    48    49   2
    52    48    50  am
    53    50    51   1
    54    51    52   1
    55    51    54   1
    56    52    53   2
    57    52    55  am
    58    55    56   1
    59    56    57   1
    60    56    59   1
    61    57    58  ar
    62    57    65  ar
    63    59    60   1
    64    60    61   1
    65    60    62   2
    66    61    63   1
    67    62    64   1
    68    63    64   2
    69     1    66   1
    70     1    67   1
    71     2    68   1
    72     5    69   1
    73     5    70   1
    74     6    71   1
    75     6    72   1
    76     7    73   1
    77     7    74   1
    78     8    75   1
    79     9    76   1
    80    12    77   1
    81    12    78   1
    82    14    79   1
    83    15    80   1
    84    16    81   1
    85    18    82   1
    86    19    83   1
    87    22    84   1
    88    22    85   1
    89    23    86   1
    90    24    87   1
    91    24    88   1
    92    24    89   1
    93    25    90   1
    94    25    91   1
    95    25    92   1
    96    26    93   1
    97    27    94   1
    98    30    95   1
    99    30    96   1
   100    31    97   1
   101    32    98   1
   102    33    99   1
   103    34   100   1
   104    34   101   1
   105    36   102   1
   106    37   103   1
   107    38   104   1
   108    39   105   1
   109    40   106   1
   110    41   107   1
   111    41   108   1
   112    42   109   1
   113    42   110   1
   114    43   111   1
   115    44   112   1
   116    44   113   1
   117    45   114   1
   118    45   115   1
   119    47   116   1
   120    47   117   1
   121    47   118   1
   122    50   119   1
   123    51   120   1
   124    54   121   1
   125    54   122   1
   126    54   123   1
   127    55   124   1
   128    56   125   1
   129    59   126   1
   130    59   127   1
   131    61   128   1
   132    62   129   1
   133    63   130   1
@<TRIPOS>SUBSTRUCTURE
     1  PRO      2

