@<TRIPOS>MOLECULE
3uri_ligand_003
   130   133
SMALL
GAST_HUCK
****
This file was generated by PARSER (from files_GN.cpp)

@<TRIPOS>ATOM
      1 N           1.2847   30.8219   17.7864 N.4         1 PRO       0.2461
      2 CA          2.0369   30.5445   16.5484 C.3         1 PRO       0.0670
      3 C           3.4700   30.5576   16.7909 C.2         1 PRO       0.2269
      4 O           4.1956   31.3287   16.1743 O.2         1 PRO      -0.3907
      5 CB          1.4871   31.6014   15.5628 C.3         1 PRO       0.0127
      6 CG          0.0028   31.7347   15.9441 C.3         1 PRO      -0.0053
      7 CD         -0.0718   31.2511   17.4062 C.3         1 PRO      -0.0313
      8 N           3.9758   29.7158   17.6849 N.am        1 PRO      -0.2592
      9 CA          5.3397   29.5267   18.1014 C.3         1 PRO       0.1422
     10 C           6.2019   30.7023   17.9361 C.2         1 PRO       0.2060
     11 O           7.3181   30.6024   17.4382 O.2         1 PRO      -0.3942
     12 CB          5.8760   28.1750   17.5185 C.3         1 PRO       0.0427
     13 CG          6.6113   27.3725   18.5251 C.2         1 PRO       0.0561
     14 ND1         7.8990   27.5184   18.8767 N.pl3       1 PRO      -0.2623
     15 CD2         6.1004   26.3624   19.3357 C.2         1 PRO      -0.0276
     16 CE1         8.1656   26.6568   19.8699 C.2         1 PRO       0.0875
     17 NE2         7.0696   25.9376   20.1605 N.2         1 PRO      -0.3437
     18 N           5.7361   31.8800   18.3327 N.am        1 PRO      -0.2636
     19 CA          6.4420   33.1297   18.4424 C.3         1 PRO       0.1312
     20 C           6.6763   33.7537   17.1351 C.2         1 PRO       0.2040
     21 O           7.5193   34.6414   17.0251 O.2         1 PRO      -0.3944
     22 CB          7.7107   32.9642   19.3444 C.3         1 PRO      -0.0101
     23 CG          7.5003   32.2150   20.7037 C.3         1 PRO      -0.0425
     24 CD1         8.8248   31.5803   21.1940 C.3         1 PRO      -0.0625
     25 CD2         6.8962   33.1291   21.8085 C.3         1 PRO      -0.0625
     26 N           5.9512   33.3925   16.0779 N.am        1 PRO      -0.2616
     27 CA          6.0797   33.8619   14.7187 C.3         1 PRO       0.1538
     28 C           4.9697   34.7202   14.3229 C.2         1 PRO       0.2045
     29 O           3.9197   34.6753   14.9528 O.2         1 PRO      -0.3944
     30 CB          6.1891   32.6530   13.7583 C.3         1 PRO       0.0843
     31 OG          5.7626   32.9933   12.4452 O.3         1 PRO      -0.3903
     32 N           5.0787   35.4366   13.2074 N.am        1 PRO      -0.2748
     33 C1          4.0823   36.2311   12.5375 C.3         1 PRO       0.0911
     34 C2          3.2915   35.3757   11.4836 C.3         1 PRO       0.0089
     35 C3          1.9277   34.8793   11.8321 C.ar        1 PRO      -0.0406
     36 C4          1.7425   33.6044   12.4199 C.ar        1 PRO      -0.0603
     37 C5          0.7750   35.6300   11.4871 C.ar        1 PRO      -0.0603
     38 C6          0.4491   33.1080   12.6656 C.ar        1 PRO      -0.0686
     39 C7         -0.5177   35.1376   11.7435 C.ar        1 PRO      -0.0686
     40 C8         -0.6802   33.8769   12.3430 C.ar        1 PRO      -0.0687
     41 C9          3.2555   37.1440   13.5146 C.3         1 PRO      -0.0062
     42 N2          3.5282   38.6041   13.4307 N.4         1 PRO       0.2479
     43 C10         2.7726   39.4711   12.4850 C.3         1 PRO       0.0676
     44 C11         3.0437   39.0992   10.9946 C.3         1 PRO       0.0169
     45 C12         2.1340   39.7760    9.9318 C.3         1 PRO       0.0007
     46 SD          1.9493   41.5692   10.1438 S.3         1 PRO      -0.1638
     47 C13         0.2689   41.8152    9.5233 C.3         1 PRO      -0.0181
     48 C           1.3699   39.5865   12.8747 C.2         1 PRO       0.2268
     49 O           0.4708   39.2165   12.1278 O.2         1 PRO      -0.3907
     50 N           1.0865   40.0835   14.0745 N.am        1 PRO      -0.2613
     51 CA         -0.2123   40.3066   14.6456 C.3         1 PRO       0.1283
     52 C          -0.4868   41.7408   14.6304 C.2         1 PRO       0.2032
     53 O          -1.1434   42.2041   13.7045 O.2         1 PRO      -0.3944
     54 CB         -0.2740   39.7007   16.0722 C.3         1 PRO      -0.0244
     55 N           0.0507   42.5405   15.5483 N.am        1 PRO      -0.2677
     56 CA          0.0004   43.9770   15.5854 C.3         1 PRO       0.1056
     57 C           1.3767   44.4782   15.3618 C.2         1 PRO       0.0621
     58 O           2.4466   43.8576   15.9192 O.co2       1 PRO      -0.5664
     59 CB         -0.5826   44.4518   16.9483 C.3         1 PRO       0.0372
     60 CG         -0.9014   45.8988   16.9784 C.2         1 PRO       0.0555
     61 ND1        -0.0343   46.9207   16.9166 N.pl3       1 PRO      -0.2623
     62 CD2        -2.1689   46.4766   17.0577 C.2         1 PRO      -0.0276
     63 CE1        -0.7286   48.0710   16.9420 C.2         1 PRO       0.0875
     64 NE2        -2.0469   47.8143   17.0311 N.2         1 PRO      -0.3437
     65 OXT         1.5957   45.5563   14.5738 O.co2       1 PRO      -0.5664
     66 H1          1.7611   31.5697   18.3033 H           1 PRO       0.2035
     67 H2          1.2336   29.9805   18.3661 H           1 PRO       0.2035
     68 H3          1.7661   29.5444   16.1882 H           1 PRO       0.1099
     69 H4          1.6179   31.2786   14.5228 H           1 PRO       0.0347
     70 H5          1.9907   32.5652   15.7105 H           1 PRO       0.0347
     71 H6         -0.6078   31.0972   15.2978 H           1 PRO       0.0320
     72 H7         -0.3332   32.7726   15.8409 H           1 PRO       0.0320
     73 H8         -0.4061   32.0478   18.0697 H           1 PRO       0.0814
     74 H9         -0.7550   30.4051   17.4935 H           1 PRO       0.0814
     75 H10         3.3351   29.1321   18.1242 H           1 PRO       0.1886
     76 H11         5.2590   29.3795   19.1868 H           1 PRO       0.0824
     77 H12         6.5241   28.3524   16.6537 H           1 PRO       0.0491
     78 H13         5.0325   27.5706   17.1671 H           1 PRO       0.0491
     79 H14         8.5307   28.1491   18.4954 H           1 PRO       0.2386
     80 H15         5.1418   26.0110   19.3244 H           1 PRO       0.0324
     81 H16         9.0696   26.5542   20.3312 H           1 PRO       0.1149
     82 H17         4.8261   31.8869   18.6624 H           1 PRO       0.1883
     83 H18         5.7609   33.8125   18.9612 H           1 PRO       0.0800
     84 H19         8.1195   33.9551   19.5490 H           1 PRO       0.0315
     85 H20         8.4663   32.4314   18.7605 H           1 PRO       0.0315
     86 H21         6.8009   31.3869   20.5480 H           1 PRO       0.0298
     87 H22         8.6526   31.0323   22.1205 H           1 PRO       0.0232
     88 H23         9.5775   32.3493   21.3725 H           1 PRO       0.0232
     89 H24         9.2101   30.8769   20.4515 H           1 PRO       0.0232
     90 H25         5.9062   33.4890   21.5162 H           1 PRO       0.0232
     91 H26         7.5474   33.9882   21.9935 H           1 PRO       0.0232
     92 H27         6.7870   32.5684   22.7420 H           1 PRO       0.0232
     93 H28         5.3048   32.6816   16.2211 H           1 PRO       0.1884
     94 H29         7.0088   34.4309   14.6133 H           1 PRO       0.0823
     95 H30         5.5669   31.8303   14.1053 H           1 PRO       0.0606
     96 H31         7.2288   32.3237   13.7092 H           1 PRO       0.0606
     97 H32         5.7414   32.1486   11.9529 H           1 PRO       0.2097
     98 H33         5.9448   35.3974   12.7685 H           1 PRO       0.1859
     99 H34         4.6897   36.9116   11.9338 H           1 PRO       0.0632
    100 H35         3.9055   34.5175   11.1969 H           1 PRO       0.0450
    101 H36         3.2076   35.9550   10.5635 H           1 PRO       0.0450
    102 H37         2.5482   33.0156   12.6459 H           1 PRO       0.0557
    103 H38         0.8705   36.5346   11.0229 H           1 PRO       0.0557
    104 H39         0.3269   32.1779   13.0623 H           1 PRO       0.0599
    105 H40        -1.3406   35.6928   11.4900 H           1 PRO       0.0599
    106 H41        -1.6178   33.5080   12.5168 H           1 PRO       0.0559
    107 H42         3.5175   36.8929   14.5426 H           1 PRO       0.0839
    108 H43         2.1878   36.9431   13.4366 H           1 PRO       0.0839
    109 H44         4.5266   38.7290   13.2486 H           1 PRO       0.2036
    110 H45         3.3437   38.9807   14.3674 H           1 PRO       0.2036
    111 H46         3.2178   40.4609   12.6204 H           1 PRO       0.1099
    112 H47         2.9240   38.0253   10.8840 H           1 PRO       0.0354
    113 H48         4.0852   39.3370   10.7568 H           1 PRO       0.0354
    114 H49         1.1599   39.2874    9.8790 H           1 PRO       0.0380
    115 H50         2.6119   39.6316    8.9601 H           1 PRO       0.0380
    116 H51         0.0104   42.8712    9.6140 H           1 PRO       0.0340
    117 H52        -0.4481   41.2297   10.0972 H           1 PRO       0.0340
    118 H53         0.2129   41.5298    8.4708 H           1 PRO       0.0340
    119 H54         1.8371   40.3575   14.6277 H           1 PRO       0.1884
    120 H55        -0.9855   39.7954   14.0639 H           1 PRO       0.0797
    121 H56        -1.2501   39.8937   16.5290 H           1 PRO       0.0277
    122 H57         0.5031   40.1184   16.7189 H           1 PRO       0.0277
    123 H58        -0.1269   38.6194   16.0187 H           1 PRO       0.0277
    124 H59         0.5320   42.1220   16.2817 H           1 PRO       0.1877
    125 H60        -0.6445   44.3686   14.7882 H           1 PRO       0.0750
    126 H61         0.1092   44.2343   17.7642 H           1 PRO       0.0484
    127 H62        -1.5054   43.8965   17.1395 H           1 PRO       0.0484
    128 H63         0.9302   46.8418   16.8511 H           1 PRO       0.2386
    129 H64        -3.0549   45.9597   17.1214 H           1 PRO       0.0324
    130 H65        -0.3172   49.0048   16.8951 H           1 PRO       0.1149
@<TRIPOS>BOND
     1     1     2   1
     2     1     7   1
     3     2     3   1
     4     2     5   1
     5     3     4   2
     6     3     8  am
     7     5     6   1
     8     6     7   1
     9     8     9   1
    10     9    10   1
    11     9    12   1
    12    10    11   2
    13    10    18  am
    14    12    13   1
    15    13    14   1
    16    13    15   2
    17    14    16   1
    18    15    17   1
    19    16    17   2
    20    18    19   1
    21    19    20   1
    22    19    22   1
    23    20    21   2
    24    20    26  am
    25    22    23   1
    26    23    24   1
    27    23    25   1
    28    26    27   1
    29    27    28   1
    30    27    30   1
    31    28    29   2
    32    28    32  am
    33    30    31   1
    34    32    33   1
    35    33    34   1
    36    33    41   1
    37    34    35   1
    38    35    36  ar
    39    35    37  ar
    40    36    38  ar
    41    37    39  ar
    42    38    40  ar
    43    39    40  ar
    44    41    42   1
    45    42    43   1
    46    43    44   1
    47    43    48   1
    48    44    45   1
    49    45    46   1
    50    46    47   1
    51    48    49   2
    52    48    50  am
    53    50    51   1
    54    51    52   1
    55    51    54   1
    56    52    53   2
    57    52    55  am
    58    55    56   1
    59    56    57   1
    60    56    59   1
    61    57    58  ar
    62    57    65  ar
    63    59    60   1
    64    60    61   1
    65    60    62   2
    66    61    63   1
    67    62    64   1
    68    63    64   2
    69     1    66   1
    70     1    67   1
    71     2    68   1
    72     5    69   1
    73     5    70   1
    74     6    71   1
    75     6    72   1
    76     7    73   1
    77     7    74   1
    78     8    75   1
    79     9    76   1
    80    12    77   1
    81    12    78   1
    82    14    79   1
    83    15    80   1
    84    16    81   1
    85    18    82   1
    86    19    83   1
    87    22    84   1
    88    22    85   1
    89    23    86   1
    90    24    87   1
    91    24    88   1
    92    24    89   1
    93    25    90   1
    94    25    91   1
    95    25    92   1
    96    26    93   1
    97    27    94   1
    98    30    95   1
    99    30    96   1
   100    31    97   1
   101    32    98   1
   102    33    99   1
   103    34   100   1
   104    34   101   1
   105    36   102   1
   106    37   103   1
   107    38   104   1
   108    39   105   1
   109    40   106   1
   110    41   107   1
   111    41   108   1
   112    42   109   1
   113    42   110   1
   114    43   111   1
   115    44   112   1
   116    44   113   1
   117    45   114   1
   118    45   115   1
   119    47   116   1
   120    47   117   1
   121    47   118   1
   122    50   119   1
   123    51   120   1
   124    54   121   1
   125    54   122   1
   126    54   123   1
   127    55   124   1
   128    56   125   1
   129    59   126   1
   130    59   127   1
   131    61   128   1
   132    62   129   1
   133    63   130   1
@<TRIPOS>SUBSTRUCTURE
     1  PRO      2

