@<TRIPOS>MOLECULE
3uri_ligand_032
   130   133
SMALL
GAST_HUCK
****
This file was generated by PARSER (from files_GN.cpp)

@<TRIPOS>ATOM
      1 N           1.8001   23.6093   18.3414 N.4         1 PRO       0.2461
      2 CA          0.5104   24.2134   18.7145 C.3         1 PRO       0.0670
      3 C           0.3825   25.5742   18.2055 C.2         1 PRO       0.2269
      4 O           0.7277   25.7712   17.0428 O.2         1 PRO      -0.3907
      5 CB          0.5043   23.9875   20.2408 C.3         1 PRO       0.0127
      6 CG          1.0810   22.5681   20.3940 C.3         1 PRO      -0.0053
      7 CD          1.9728   22.3883   19.1484 C.3         1 PRO      -0.0313
      8 N          -0.0761   26.5706   18.9531 N.am        1 PRO      -0.2592
      9 CA         -0.3365   27.9364   18.5670 C.3         1 PRO       0.1422
     10 C           0.5903   28.4093   17.5377 C.2         1 PRO       0.2060
     11 O           0.1470   28.6381   16.4248 O.2         1 PRO      -0.3942
     12 CB         -0.4019   28.8896   19.8071 C.3         1 PRO       0.0427
     13 CG          0.6339   28.6605   20.8475 C.2         1 PRO       0.0561
     14 ND1         0.5753   27.7271   21.8069 N.pl3       1 PRO      -0.2623
     15 CD2         1.8226   29.3555   21.0557 C.2         1 PRO      -0.0276
     16 CE1         1.6789   27.8221   22.5643 C.2         1 PRO       0.0875
     17 NE2         2.4546   28.8180   22.1106 N.2         1 PRO      -0.3437
     18 N           1.8930   28.4867   17.7919 N.am        1 PRO      -0.2636
     19 CA          2.9800   28.6899   16.8645 C.3         1 PRO       0.1312
     20 C           4.2707   28.7281   17.5621 C.2         1 PRO       0.2040
     21 O           4.3285   28.6277   18.7828 O.2         1 PRO      -0.3944
     22 CB          2.8111   29.8683   15.8409 C.3         1 PRO      -0.0101
     23 CG          2.5713   31.3277   16.3507 C.3         1 PRO      -0.0425
     24 CD1         2.1602   32.2359   15.1521 C.3         1 PRO      -0.0625
     25 CD2         1.5083   31.4331   17.4728 C.3         1 PRO      -0.0625
     26 N           5.3984   28.8123   16.8610 N.am        1 PRO      -0.2616
     27 CA          6.7465   28.8825   17.3764 C.3         1 PRO       0.1538
     28 C           7.0845   30.2298   17.8547 C.2         1 PRO       0.2045
     29 O           6.2870   30.8222   18.5730 O.2         1 PRO      -0.3944
     30 CB          7.7264   28.3217   16.3013 C.3         1 PRO       0.0843
     31 OG          7.1809   27.1911   15.6218 O.3         1 PRO      -0.3903
     32 N           8.2596   30.7921   17.6006 N.am        1 PRO      -0.2748
     33 C1          8.7741   32.0546   18.0639 C.3         1 PRO       0.0911
     34 C2          7.9909   33.3379   17.6070 C.3         1 PRO       0.0089
     35 C3          7.0970   33.2319   16.4164 C.ar        1 PRO      -0.0406
     36 C4          7.5357   32.6869   15.1882 C.ar        1 PRO      -0.0603
     37 C5          5.7756   33.7419   16.4894 C.ar        1 PRO      -0.0603
     38 C6          6.6732   32.6184   14.0814 C.ar        1 PRO      -0.0686
     39 C7          4.9178   33.7035   15.3690 C.ar        1 PRO      -0.0686
     40 C8          5.3680   33.1342   14.1645 C.ar        1 PRO      -0.0687
     41 C9          9.0788   31.9877   19.5918 C.3         1 PRO      -0.0062
     42 N2          7.8987   32.2707   20.4461 N.4         1 PRO       0.2479
     43 C10         7.9060   31.7106   21.8279 C.3         1 PRO       0.0676
     44 C11         7.0319   32.6143   22.7436 C.3         1 PRO       0.0169
     45 C12         5.5302   32.7773   22.3673 C.3         1 PRO       0.0007
     46 SD          4.5236   31.3493   22.8678 S.3         1 PRO      -0.1638
     47 C13         3.1444   32.2229   23.6410 C.3         1 PRO      -0.0181
     48 C           7.5251   30.3004   21.8804 C.2         1 PRO       0.2268
     49 O           7.1114   29.7476   20.8657 O.2         1 PRO      -0.3907
     50 N           7.6218   29.6349   23.0270 N.am        1 PRO      -0.2613
     51 CA          7.3097   28.2518   23.2614 C.3         1 PRO       0.1283
     52 C           6.4291   28.1341   24.4181 C.2         1 PRO       0.2032
     53 O           5.3113   27.6538   24.2740 O.2         1 PRO      -0.3944
     54 CB          8.6291   27.4592   23.4571 C.3         1 PRO      -0.0244
     55 N           6.8605   28.5123   25.6165 N.am        1 PRO      -0.2677
     56 CA          6.1656   28.3878   26.8675 C.3         1 PRO       0.1056
     57 C           5.0361   29.3424   26.9171 C.2         1 PRO       0.0621
     58 O           5.2201   30.6497   26.6231 O.co2       1 PRO      -0.5664
     59 CB          7.1418   28.6344   28.0516 C.3         1 PRO       0.0372
     60 CG          8.2555   27.6647   28.0857 C.2         1 PRO       0.0555
     61 ND1         9.4331   27.8068   27.4645 N.pl3       1 PRO      -0.2623
     62 CD2         8.2919   26.4249   28.7183 C.2         1 PRO      -0.0276
     63 CE1        10.1706   26.7125   27.6959 C.2         1 PRO       0.0875
     64 NE2         9.4796   25.8537   28.4663 N.2         1 PRO      -0.3437
     65 OXT         3.7891   28.9194   27.2227 O.co2       1 PRO      -0.5664
     66 H1          2.5562   24.2610   18.5770 H           1 PRO       0.2035
     67 H2          1.8370   23.3957   17.3441 H           1 PRO       0.2035
     68 H3         -0.3020   23.6201   18.2808 H           1 PRO       0.1099
     69 H4         -0.5005   24.0732   20.6657 H           1 PRO       0.0347
     70 H5          1.1723   24.6995   20.7432 H           1 PRO       0.0347
     71 H6          0.2702   21.8338   20.3883 H           1 PRO       0.0320
     72 H7          1.6481   22.4687   21.3188 H           1 PRO       0.0320
     73 H8          3.0254   22.2780   19.4228 H           1 PRO       0.0814
     74 H9          1.6640   21.5151   18.5671 H           1 PRO       0.0814
     75 H10        -0.3073   26.3404   19.8626 H           1 PRO       0.1886
     76 H11        -1.3459   27.9303   18.1421 H           1 PRO       0.0824
     77 H12        -1.3738   28.7661   20.2997 H           1 PRO       0.0491
     78 H13        -0.3531   29.9285   19.4769 H           1 PRO       0.0491
     79 H14        -0.1433   27.0915   21.9372 H           1 PRO       0.2386
     80 H15         2.1709   30.1393   20.5054 H           1 PRO       0.0324
     81 H16         1.8860   27.2353   23.3720 H           1 PRO       0.1149
     82 H17         2.1473   28.2962   18.7057 H           1 PRO       0.1883
     83 H18         3.0077   27.7736   16.2633 H           1 PRO       0.0800
     84 H19         2.0042   29.6096   15.1536 H           1 PRO       0.0315
     85 H20         3.7144   29.8914   15.2232 H           1 PRO       0.0315
     86 H21         3.5154   31.7133   16.7463 H           1 PRO       0.0298
     87 H22         2.0675   33.2756   15.4711 H           1 PRO       0.0232
     88 H23         1.2024   31.9127   14.7380 H           1 PRO       0.0232
     89 H24         2.9161   32.1903   14.3611 H           1 PRO       0.0232
     90 H25         1.8476   30.9144   18.3625 H           1 PRO       0.0232
     91 H26         0.5531   31.0028   17.1464 H           1 PRO       0.0232
     92 H27         1.3471   32.4789   17.7355 H           1 PRO       0.0232
     93 H28         5.3088   28.8267   15.8923 H           1 PRO       0.1884
     94 H29         6.8161   28.2014   18.2313 H           1 PRO       0.0823
     95 H30         8.6605   28.0096   16.7658 H           1 PRO       0.0606
     96 H31         7.9600   29.0902   15.5577 H           1 PRO       0.0606
     97 H32         7.4604   26.4196   16.1579 H           1 PRO       0.2097
     98 H33         8.8685   30.2922   17.0304 H           1 PRO       0.1859
     99 H34         9.7559   32.1255   17.5761 H           1 PRO       0.0632
    100 H35         8.7198   34.1226   17.3913 H           1 PRO       0.0450
    101 H36         7.3954   33.7011   18.4482 H           1 PRO       0.0450
    102 H37         8.4837   32.3235   15.0863 H           1 PRO       0.0557
    103 H38         5.4258   34.1540   17.3533 H           1 PRO       0.0557
    104 H39         7.0031   32.2127   13.2038 H           1 PRO       0.0599
    105 H40         3.9757   34.0901   15.4307 H           1 PRO       0.0599
    106 H41         4.7509   33.1060   13.3494 H           1 PRO       0.0559
    107 H42         9.8522   32.7246   19.8352 H           1 PRO       0.0839
    108 H43         9.4911   31.0014   19.8247 H           1 PRO       0.0839
    109 H44         7.0630   31.9295   19.9755 H           1 PRO       0.2036
    110 H45         7.8220   33.2901   20.5170 H           1 PRO       0.2036
    111 H46         8.9336   31.7887   22.2057 H           1 PRO       0.1099
    112 H47         7.4853   33.6157   22.7390 H           1 PRO       0.0354
    113 H48         7.1106   32.2557   23.7716 H           1 PRO       0.0354
    114 H49         5.4132   32.9322   21.2916 H           1 PRO       0.0380
    115 H50         5.1551   33.6701   22.8679 H           1 PRO       0.0380
    116 H51         2.3838   31.5044   23.9268 H           1 PRO       0.0340
    117 H52         2.7130   32.9494   22.9489 H           1 PRO       0.0340
    118 H53         3.4981   32.7413   24.5382 H           1 PRO       0.0340
    119 H54         7.9814   30.1255   23.7862 H           1 PRO       0.1884
    120 H55         6.8132   27.8128   22.3880 H           1 PRO       0.0797
    121 H56         8.4139   26.4090   23.6715 H           1 PRO       0.0277
    122 H57         9.2227   27.8697   24.2810 H           1 PRO       0.0277
    123 H58         9.2295   27.5075   22.5458 H           1 PRO       0.0277
    124 H59         7.7597   28.8667   25.6580 H           1 PRO       0.1877
    125 H60         5.7797   27.3667   26.9566 H           1 PRO       0.0750
    126 H61         6.5930   28.5685   28.9960 H           1 PRO       0.0484
    127 H62         7.5645   29.6388   27.9831 H           1 PRO       0.0484
    128 H63         9.6996   28.5678   26.9267 H           1 PRO       0.2386
    129 H64         7.5427   26.0095   29.2721 H           1 PRO       0.0324
    130 H65        11.1111   26.5517   27.3352 H           1 PRO       0.1149
@<TRIPOS>BOND
     1     1     2   1
     2     1     7   1
     3     2     3   1
     4     2     5   1
     5     3     4   2
     6     3     8  am
     7     5     6   1
     8     6     7   1
     9     8     9   1
    10     9    10   1
    11     9    12   1
    12    10    11   2
    13    10    18  am
    14    12    13   1
    15    13    14   1
    16    13    15   2
    17    14    16   1
    18    15    17   1
    19    16    17   2
    20    18    19   1
    21    19    20   1
    22    19    22   1
    23    20    21   2
    24    20    26  am
    25    22    23   1
    26    23    24   1
    27    23    25   1
    28    26    27   1
    29    27    28   1
    30    27    30   1
    31    28    29   2
    32    28    32  am
    33    30    31   1
    34    32    33   1
    35    33    34   1
    36    33    41   1
    37    34    35   1
    38    35    36  ar
    39    35    37  ar
    40    36    38  ar
    41    37    39  ar
    42    38    40  ar
    43    39    40  ar
    44    41    42   1
    45    42    43   1
    46    43    44   1
    47    43    48   1
    48    44    45   1
    49    45    46   1
    50    46    47   1
    51    48    49   2
    52    48    50  am
    53    50    51   1
    54    51    52   1
    55    51    54   1
    56    52    53   2
    57    52    55  am
    58    55    56   1
    59    56    57   1
    60    56    59   1
    61    57    58  ar
    62    57    65  ar
    63    59    60   1
    64    60    61   1
    65    60    62   2
    66    61    63   1
    67    62    64   1
    68    63    64   2
    69     1    66   1
    70     1    67   1
    71     2    68   1
    72     5    69   1
    73     5    70   1
    74     6    71   1
    75     6    72   1
    76     7    73   1
    77     7    74   1
    78     8    75   1
    79     9    76   1
    80    12    77   1
    81    12    78   1
    82    14    79   1
    83    15    80   1
    84    16    81   1
    85    18    82   1
    86    19    83   1
    87    22    84   1
    88    22    85   1
    89    23    86   1
    90    24    87   1
    91    24    88   1
    92    24    89   1
    93    25    90   1
    94    25    91   1
    95    25    92   1
    96    26    93   1
    97    27    94   1
    98    30    95   1
    99    30    96   1
   100    31    97   1
   101    32    98   1
   102    33    99   1
   103    34   100   1
   104    34   101   1
   105    36   102   1
   106    37   103   1
   107    38   104   1
   108    39   105   1
   109    40   106   1
   110    41   107   1
   111    41   108   1
   112    42   109   1
   113    42   110   1
   114    43   111   1
   115    44   112   1
   116    44   113   1
   117    45   114   1
   118    45   115   1
   119    47   116   1
   120    47   117   1
   121    47   118   1
   122    50   119   1
   123    51   120   1
   124    54   121   1
   125    54   122   1
   126    54   123   1
   127    55   124   1
   128    56   125   1
   129    59   126   1
   130    59   127   1
   131    61   128   1
   132    62   129   1
   133    63   130   1
@<TRIPOS>SUBSTRUCTURE
     1  PRO      2

