@<TRIPOS>MOLECULE
3uri_ligand_044
   130   133
SMALL
GAST_HUCK
****
This file was generated by PARSER (from files_GN.cpp)

@<TRIPOS>ATOM
      1 N          10.1178   27.1219   26.5825 N.4         1 PRO       0.2461
      2 CA         10.0389   26.5012   25.2430 C.3         1 PRO       0.0670
      3 C           8.6954   26.1250   24.8439 C.2         1 PRO       0.2269
      4 O           7.7238   26.6410   25.3912 O.2         1 PRO      -0.3907
      5 CB         11.0329   25.3206   25.3230 C.3         1 PRO       0.0127
      6 CG         12.1587   25.8651   26.2127 C.3         1 PRO      -0.0053
      7 CD         11.4269   26.8084   27.1829 C.3         1 PRO      -0.0313
      8 N           8.5380   25.2454   23.8647 N.am        1 PRO      -0.2592
      9 CA          7.3061   24.7044   23.3470 C.3         1 PRO       0.1422
     10 C           6.4217   25.7122   22.7686 C.2         1 PRO       0.2060
     11 O           6.6933   26.9015   22.8569 O.2         1 PRO      -0.3942
     12 CB          6.5447   23.8202   24.3878 C.3         1 PRO       0.0427
     13 CG          7.4218   22.9185   25.1563 C.2         1 PRO       0.0561
     14 ND1         7.9437   23.1696   26.3681 N.pl3       1 PRO      -0.2623
     15 CD2         7.9167   21.6675   24.7804 C.2         1 PRO      -0.0276
     16 CE1         8.7276   22.1462   26.7183 C.2         1 PRO       0.0875
     17 NE2         8.7145   21.2064   25.7521 N.2         1 PRO      -0.3437
     18 N           5.3096   25.3227   22.1515 N.am        1 PRO      -0.2636
     19 CA          4.2919   26.1604   21.5612 C.3         1 PRO       0.1312
     20 C           4.7980   27.0501   20.5179 C.2         1 PRO       0.2040
     21 O           5.9221   26.8687   20.0605 O.2         1 PRO      -0.3944
     22 CB          3.4717   26.9184   22.6627 C.3         1 PRO      -0.0101
     23 CG          3.2666   26.1760   24.0268 C.3         1 PRO      -0.0425
     24 CD1         2.4229   27.0405   25.0049 C.3         1 PRO      -0.0625
     25 CD2         2.6300   24.7670   23.8796 C.3         1 PRO      -0.0625
     26 N           4.0348   28.0129   20.0144 N.am        1 PRO      -0.2616
     27 CA          4.4209   28.9715   19.0241 C.3         1 PRO       0.1538
     28 C           5.3339   29.9559   19.5980 C.2         1 PRO       0.2045
     29 O           6.5262   29.8793   19.3241 O.2         1 PRO      -0.3944
     30 CB          3.1480   29.5788   18.3723 C.3         1 PRO       0.0843
     31 OG          3.4672   30.6252   17.4582 O.3         1 PRO      -0.3903
     32 N           4.8975   30.9206   20.3993 N.am        1 PRO      -0.2748
     33 C1          5.6448   32.0094   20.9882 C.3         1 PRO       0.0911
     34 C2          6.4419   31.5420   22.2491 C.3         1 PRO       0.0089
     35 C3          5.7126   31.0866   23.4713 C.ar        1 PRO      -0.0406
     36 C4          6.4875   30.7014   24.5924 C.ar        1 PRO      -0.0603
     37 C5          4.2994   31.0615   23.6008 C.ar        1 PRO      -0.0603
     38 C6          5.8841   30.3186   25.8032 C.ar        1 PRO      -0.0686
     39 C7          3.6935   30.6813   24.8135 C.ar        1 PRO      -0.0686
     40 C8          4.4847   30.3140   25.9168 C.ar        1 PRO      -0.0687
     41 C9          6.5602   32.7858   19.9805 C.3         1 PRO      -0.0062
     42 N2          6.0399   32.7569   18.5906 N.4         1 PRO       0.2479
     43 C10         6.5512   33.7286   17.5776 C.3         1 PRO       0.0676
     44 C11         8.1157   33.7476   17.4552 C.3         1 PRO       0.0169
     45 C12         8.7974   32.4581   16.9109 C.3         1 PRO       0.0007
     46 SD          9.2560   31.2391   18.1713 S.3         1 PRO      -0.1638
     47 C13        10.8515   31.9253   18.6947 C.3         1 PRO      -0.0181
     48 C           5.8697   33.5416   16.2875 C.2         1 PRO       0.2268
     49 O           4.9768   32.7084   16.1892 O.2         1 PRO      -0.3907
     50 N           6.1967   34.2809   15.2322 N.am        1 PRO      -0.2613
     51 CA          5.6531   34.2029   13.9000 C.3         1 PRO       0.1283
     52 C           4.2925   34.7173   13.7757 C.2         1 PRO       0.2032
     53 O           3.6891   35.0772   14.7811 O.2         1 PRO      -0.3944
     54 CB          5.8776   32.7922   13.2808 C.3         1 PRO      -0.0244
     55 N           3.7851   34.9760   12.5737 N.am        1 PRO      -0.2677
     56 CA          2.6988   35.8615   12.2603 C.3         1 PRO       0.1056
     57 C           1.6142   35.8587   13.2681 C.2         1 PRO       0.0621
     58 O           1.1334   34.6903   13.7514 O.co2       1 PRO      -0.5664
     59 CB          2.1660   35.5961   10.8220 C.3         1 PRO       0.0372
     60 CG          1.1939   34.4885   10.6812 C.2         1 PRO       0.0555
     61 ND1         0.1156   34.4954    9.8913 N.pl3       1 PRO      -0.2623
     62 CD2         1.1663   33.2692   11.3604 C.2         1 PRO      -0.0276
     63 CE1        -0.5447   33.3362   10.0525 C.2         1 PRO       0.0875
     64 NE2         0.0920   32.5745   10.9598 N.2         1 PRO      -0.3437
     65 OXT         1.2381   37.0093   13.8714 O.co2       1 PRO      -0.5664
     66 H1          9.3891   26.7307   27.1860 H           1 PRO       0.2035
     67 H2          9.9805   28.1346   26.5056 H           1 PRO       0.2035
     68 H3         10.4141   27.2323   24.5179 H           1 PRO       0.1099
     69 H4         11.4086   25.0357   24.3368 H           1 PRO       0.0347
     70 H5         10.5697   24.4514   25.7985 H           1 PRO       0.0347
     71 H6         12.8752   26.4323   25.6122 H           1 PRO       0.0320
     72 H7         12.6842   25.0648   26.7381 H           1 PRO       0.0320
     73 H8         11.2708   26.3247   28.1501 H           1 PRO       0.0814
     74 H9         11.9984   27.7247   27.3339 H           1 PRO       0.0814
     75 H10         9.3559   24.8918   23.4728 H           1 PRO       0.1886
     76 H11         7.6127   24.0480   22.5272 H           1 PRO       0.0824
     77 H12         5.7877   23.2093   23.8885 H           1 PRO       0.0491
     78 H13         6.0174   24.4648   25.0980 H           1 PRO       0.0491
     79 H14         7.7944   23.9797   26.8890 H           1 PRO       0.2386
     80 H15         7.7077   21.1810   23.9061 H           1 PRO       0.0324
     81 H16         9.2542   22.0807   27.5903 H           1 PRO       0.1149
     82 H17         5.1595   24.3677   22.0959 H           1 PRO       0.1883
     83 H18         3.5932   25.4877   21.0595 H           1 PRO       0.0800
     84 H19         2.4806   27.1572   22.2639 H           1 PRO       0.0315
     85 H20         3.9679   27.8731   22.8703 H           1 PRO       0.0315
     86 H21         4.2460   26.0423   24.4975 H           1 PRO       0.0298
     87 H22         2.3494   26.5529   25.9820 H           1 PRO       0.0232
     88 H23         1.4129   27.1914   24.6110 H           1 PRO       0.0232
     89 H24         2.8906   28.0166   25.1514 H           1 PRO       0.0232
     90 H25         3.2840   24.1076   23.3079 H           1 PRO       0.0232
     91 H26         1.6633   24.8300   23.3753 H           1 PRO       0.0232
     92 H27         2.4829   24.3126   24.8642 H           1 PRO       0.0232
     93 H28         3.1245   28.0705   20.3431 H           1 PRO       0.1884
     94 H29         4.9342   28.4298   18.2198 H           1 PRO       0.0823
     95 H30         2.4637   29.9734   19.1308 H           1 PRO       0.0606
     96 H31         2.6161   28.8069   17.8147 H           1 PRO       0.0606
     97 H32         3.4913   31.4303   18.0128 H           1 PRO       0.2097
     98 H33         3.9400   30.9376   20.5702 H           1 PRO       0.1859
     99 H34         4.8994   32.7315   21.3253 H           1 PRO       0.0632
    100 H35         7.0732   32.3779   22.5648 H           1 PRO       0.0450
    101 H36         7.1068   30.7327   21.9375 H           1 PRO       0.0450
    102 H37         7.5079   30.7149   24.5414 H           1 PRO       0.0557
    103 H38         3.6961   31.3364   22.8257 H           1 PRO       0.0557
    104 H39         6.4620   30.0541   26.6052 H           1 PRO       0.0599
    105 H40         2.6733   30.6776   24.8942 H           1 PRO       0.0599
    106 H41         4.0403   30.0476   26.7973 H           1 PRO       0.0559
    107 H42         7.5533   32.3478   19.9849 H           1 PRO       0.0839
    108 H43         6.6544   33.8231   20.3144 H           1 PRO       0.0839
    109 H44         5.0296   32.8922   18.6610 H           1 PRO       0.2036
    110 H45         6.2029   31.8219   18.2159 H           1 PRO       0.2036
    111 H46         6.2547   34.7234   17.9189 H           1 PRO       0.1099
    112 H47         8.5364   34.0149   18.4245 H           1 PRO       0.0354
    113 H48         8.3923   34.5730   16.7956 H           1 PRO       0.0354
    114 H49         9.7006   32.7235   16.3557 H           1 PRO       0.0380
    115 H50         8.1309   31.9610   16.2020 H           1 PRO       0.0380
    116 H51        11.2842   31.2647   19.4496 H           1 PRO       0.0340
    117 H52        10.7252   32.9169   19.1355 H           1 PRO       0.0340
    118 H53        11.5355   31.9865   17.8456 H           1 PRO       0.0340
    119 H54         6.9085   34.9272   15.3576 H           1 PRO       0.1884
    120 H55         6.2596   34.8902   13.3120 H           1 PRO       0.0797
    121 H56         5.7417   32.8264   12.1965 H           1 PRO       0.0277
    122 H57         5.1767   32.0650   13.6948 H           1 PRO       0.0277
    123 H58         6.8938   32.4463   13.4756 H           1 PRO       0.0277
    124 H59         4.2744   34.6180   11.8119 H           1 PRO       0.1877
    125 H60         3.1221   36.8709   12.2368 H           1 PRO       0.0750
    126 H61         3.0146   35.3948   10.1631 H           1 PRO       0.0484
    127 H62         1.6902   36.5097   10.4577 H           1 PRO       0.0484
    128 H63        -0.1408   35.2125    9.2851 H           1 PRO       0.2386
    129 H64         1.8440   32.9532   12.0520 H           1 PRO       0.0324
    130 H65        -1.3979   33.0735    9.5605 H           1 PRO       0.1149
@<TRIPOS>BOND
     1     1     2   1
     2     1     7   1
     3     2     3   1
     4     2     5   1
     5     3     4   2
     6     3     8  am
     7     5     6   1
     8     6     7   1
     9     8     9   1
    10     9    10   1
    11     9    12   1
    12    10    11   2
    13    10    18  am
    14    12    13   1
    15    13    14   1
    16    13    15   2
    17    14    16   1
    18    15    17   1
    19    16    17   2
    20    18    19   1
    21    19    20   1
    22    19    22   1
    23    20    21   2
    24    20    26  am
    25    22    23   1
    26    23    24   1
    27    23    25   1
    28    26    27   1
    29    27    28   1
    30    27    30   1
    31    28    29   2
    32    28    32  am
    33    30    31   1
    34    32    33   1
    35    33    34   1
    36    33    41   1
    37    34    35   1
    38    35    36  ar
    39    35    37  ar
    40    36    38  ar
    41    37    39  ar
    42    38    40  ar
    43    39    40  ar
    44    41    42   1
    45    42    43   1
    46    43    44   1
    47    43    48   1
    48    44    45   1
    49    45    46   1
    50    46    47   1
    51    48    49   2
    52    48    50  am
    53    50    51   1
    54    51    52   1
    55    51    54   1
    56    52    53   2
    57    52    55  am
    58    55    56   1
    59    56    57   1
    60    56    59   1
    61    57    58  ar
    62    57    65  ar
    63    59    60   1
    64    60    61   1
    65    60    62   2
    66    61    63   1
    67    62    64   1
    68    63    64   2
    69     1    66   1
    70     1    67   1
    71     2    68   1
    72     5    69   1
    73     5    70   1
    74     6    71   1
    75     6    72   1
    76     7    73   1
    77     7    74   1
    78     8    75   1
    79     9    76   1
    80    12    77   1
    81    12    78   1
    82    14    79   1
    83    15    80   1
    84    16    81   1
    85    18    82   1
    86    19    83   1
    87    22    84   1
    88    22    85   1
    89    23    86   1
    90    24    87   1
    91    24    88   1
    92    24    89   1
    93    25    90   1
    94    25    91   1
    95    25    92   1
    96    26    93   1
    97    27    94   1
    98    30    95   1
    99    30    96   1
   100    31    97   1
   101    32    98   1
   102    33    99   1
   103    34   100   1
   104    34   101   1
   105    36   102   1
   106    37   103   1
   107    38   104   1
   108    39   105   1
   109    40   106   1
   110    41   107   1
   111    41   108   1
   112    42   109   1
   113    42   110   1
   114    43   111   1
   115    44   112   1
   116    44   113   1
   117    45   114   1
   118    45   115   1
   119    47   116   1
   120    47   117   1
   121    47   118   1
   122    50   119   1
   123    51   120   1
   124    54   121   1
   125    54   122   1
   126    54   123   1
   127    55   124   1
   128    56   125   1
   129    59   126   1
   130    59   127   1
   131    61   128   1
   132    62   129   1
   133    63   130   1
@<TRIPOS>SUBSTRUCTURE
     1  PRO      2

