@<TRIPOS>MOLECULE
3uri_ligand_015
   130   133
SMALL
GAST_HUCK
****
This file was generated by PARSER (from files_GN.cpp)

@<TRIPOS>ATOM
      1 N           1.3242   33.6074   11.9199 N.4         1 PRO       0.2461
      2 CA          0.7884   33.6049   13.3008 C.3         1 PRO       0.0670
      3 C           1.6627   32.9858   14.2876 C.2         1 PRO       0.2269
      4 O           2.8208   32.7316   13.9894 O.2         1 PRO      -0.3907
      5 CB         -0.5934   32.9324   13.1758 C.3         1 PRO       0.0127
      6 CG         -1.0871   33.3781   11.7906 C.3         1 PRO      -0.0053
      7 CD          0.2015   33.5570   10.9678 C.3         1 PRO      -0.0313
      8 N           1.2093   32.6968   15.5017 N.am        1 PRO      -0.2592
      9 CA          1.9601   32.1356   16.5988 C.3         1 PRO       0.1422
     10 C           3.1633   32.9415   16.8430 C.2         1 PRO       0.2060
     11 O           3.0204   34.0584   17.3261 O.2         1 PRO      -0.3942
     12 CB          2.1867   30.5921   16.4448 C.3         1 PRO       0.0427
     13 CG          0.9739   29.8712   16.0167 C.2         1 PRO       0.0561
     14 ND1         0.6300   29.6223   14.7463 N.pl3       1 PRO      -0.2623
     15 CD2        -0.0607   29.3838   16.8072 C.2         1 PRO      -0.0276
     16 CE1        -0.5660   29.0219   14.7407 C.2         1 PRO       0.0875
     17 NE2        -1.0006   28.8634   16.0038 N.2         1 PRO      -0.3437
     18 N           4.3803   32.5300   16.4972 N.am        1 PRO      -0.2636
     19 CA          5.6222   33.2692   16.5377 C.3         1 PRO       0.1312
     20 C           5.8268   34.1333   15.3654 C.2         1 PRO       0.2040
     21 O           6.8608   34.7815   15.3013 O.2         1 PRO      -0.3944
     22 CB          6.7451   32.2055   16.8145 C.3         1 PRO      -0.0101
     23 CG          8.2291   32.5267   16.4182 C.3         1 PRO      -0.0425
     24 CD1         9.2425   32.0358   17.4886 C.3         1 PRO      -0.0625
     25 CD2         8.5871   31.9100   15.0326 C.3         1 PRO      -0.0625
     26 N           4.9013   34.2919   14.4252 N.am        1 PRO      -0.2616
     27 CA          4.9366   35.0924   13.2200 C.3         1 PRO       0.1538
     28 C           3.7798   35.9844   13.1243 C.2         1 PRO       0.2045
     29 O           3.0713   36.1822   14.1050 O.2         1 PRO      -0.3944
     30 CB          5.0904   34.1389   11.9873 C.3         1 PRO       0.0843
     31 OG          5.2606   32.7718   12.3647 O.3         1 PRO      -0.3903
     32 N           3.5782   36.6706   12.0016 N.am        1 PRO      -0.2748
     33 C1          2.6558   37.7559   11.7742 C.3         1 PRO       0.0911
     34 C2          3.1672   38.6289   10.5775 C.3         1 PRO       0.0089
     35 C3          4.2244   39.6209   10.9477 C.ar        1 PRO      -0.0406
     36 C4          5.4161   39.2111   11.5943 C.ar        1 PRO      -0.0603
     37 C5          4.0689   40.9949   10.6460 C.ar        1 PRO      -0.0603
     38 C6          6.4076   40.1440   11.9483 C.ar        1 PRO      -0.0686
     39 C7          5.0628   41.9296   10.9922 C.ar        1 PRO      -0.0686
     40 C8          6.2314   41.5049   11.6496 C.ar        1 PRO      -0.0687
     41 C9          1.2007   37.2407   11.5465 C.3         1 PRO      -0.0062
     42 N2          0.2039   38.3367   11.7121 N.4         1 PRO       0.2479
     43 C10        -0.9321   38.1638   12.6703 C.3         1 PRO       0.0676
     44 C11        -1.8030   36.9091   12.3160 C.3         1 PRO       0.0169
     45 C12        -3.3397   37.1154   12.2796 C.3         1 PRO       0.0007
     46 SD         -3.9183   37.4606   10.5934 S.3         1 PRO      -0.1638
     47 C13        -5.5654   36.7286   10.7005 C.3         1 PRO      -0.0181
     48 C          -0.5031   38.1874   14.0726 C.2         1 PRO       0.2268
     49 O           0.6008   37.7575   14.3836 O.2         1 PRO      -0.3907
     50 N          -1.3375   38.6116   15.0139 N.am        1 PRO      -0.2613
     51 CA         -1.1592   38.4999   16.4362 C.3         1 PRO       0.1283
     52 C          -2.4839   38.4314   17.0411 C.2         1 PRO       0.2032
     53 O          -3.1255   39.4672   17.1762 O.2         1 PRO      -0.3944
     54 CB         -0.2962   39.6432   17.0403 C.3         1 PRO      -0.0244
     55 N          -3.0257   37.2470   17.3128 N.am        1 PRO      -0.2677
     56 CA         -4.3176   36.9454   17.8706 C.3         1 PRO       0.1056
     57 C          -5.4533   37.6394   17.2167 C.2         1 PRO       0.0621
     58 O          -6.7218   37.3359   17.5775 O.co2       1 PRO      -0.5664
     59 CB         -4.3304   37.0180   19.4289 C.3         1 PRO       0.0372
     60 CG         -4.0653   38.3391   20.0340 C.2         1 PRO       0.0555
     61 ND1        -2.9866   38.6653   20.7615 N.pl3       1 PRO      -0.2623
     62 CD2        -4.8737   39.4724   20.0111 C.2         1 PRO      -0.0276
     63 CE1        -3.1117   39.9374   21.1612 C.2         1 PRO       0.0875
     64 NE2        -4.2689   40.4470   20.7082 N.2         1 PRO      -0.3437
     65 OXT        -5.2908   38.4198   16.1254 O.co2       1 PRO      -0.5664
     66 H1          1.9183   32.7893   11.7566 H           1 PRO       0.2035
     67 H2          1.8781   34.4527   11.7652 H           1 PRO       0.2035
     68 H3          0.6447   34.6510   13.5889 H           1 PRO       0.1099
     69 H4         -1.2753   33.2552   13.9676 H           1 PRO       0.0347
     70 H5         -0.4993   31.8429   13.2014 H           1 PRO       0.0347
     71 H6         -1.6270   34.3263   11.8703 H           1 PRO       0.0320
     72 H7         -1.7525   32.6378   11.3408 H           1 PRO       0.0320
     73 H8          0.3507   32.7032   10.3023 H           1 PRO       0.0814
     74 H9          0.1633   34.4715   10.3715 H           1 PRO       0.0814
     75 H10         0.2688   32.8642   15.6602 H           1 PRO       0.1886
     76 H11         1.3295   32.2533   17.4847 H           1 PRO       0.0824
     77 H12         2.5276   30.1764   17.3970 H           1 PRO       0.0491
     78 H13         2.9655   30.3871   15.7072 H           1 PRO       0.0491
     79 H14         1.1551   29.8587   13.9635 H           1 PRO       0.2386
     80 H15        -0.1063   29.4225   17.8272 H           1 PRO       0.0324
     81 H16        -1.0773   28.7419   13.9030 H           1 PRO       0.1149
     82 H17         4.4435   31.6286   16.1451 H           1 PRO       0.1883
     83 H18         5.5892   33.9272   17.4142 H           1 PRO       0.0800
     84 H19         6.4710   31.2569   16.3399 H           1 PRO       0.0315
     85 H20         6.7025   32.0110   17.8912 H           1 PRO       0.0315
     86 H21         8.3596   33.6099   16.3653 H           1 PRO       0.0298
     87 H22        10.2674   32.2405   17.1712 H           1 PRO       0.0232
     88 H23         9.1317   30.9633   17.6556 H           1 PRO       0.0232
     89 H24         9.0737   32.5560   18.4338 H           1 PRO       0.0232
     90 H25         7.8936   32.2501   14.2635 H           1 PRO       0.0232
     91 H26         8.5367   30.8198   15.0777 H           1 PRO       0.0232
     92 H27         9.5958   32.1919   14.7308 H           1 PRO       0.0232
     93 H28         4.0887   33.7823   14.5494 H           1 PRO       0.1884
     94 H29         5.8131   35.7498   13.2318 H           1 PRO       0.0823
     95 H30         5.9740   34.4412   11.4216 H           1 PRO       0.0606
     96 H31         4.2363   34.1921   11.3031 H           1 PRO       0.0606
     97 H32         5.4414   32.2911   11.5349 H           1 PRO       0.2097
     98 H33         4.1730   36.4633   11.2596 H           1 PRO       0.1859
     99 H34         2.6430   38.3823   12.6741 H           1 PRO       0.0632
    100 H35         2.3174   39.1549   10.1348 H           1 PRO       0.0450
    101 H36         3.5603   37.9831    9.7856 H           1 PRO       0.0450
    102 H37         5.5721   38.2270   11.8145 H           1 PRO       0.0557
    103 H38         3.2263   41.3279   10.1705 H           1 PRO       0.0557
    104 H39         7.2593   39.8309   12.4186 H           1 PRO       0.0599
    105 H40         4.9341   42.9164   10.7680 H           1 PRO       0.0599
    106 H41         6.9495   42.1823   11.9047 H           1 PRO       0.0559
    107 H42         0.9896   36.4296   12.2442 H           1 PRO       0.0839
    108 H43         1.1120   36.8264   10.5392 H           1 PRO       0.0839
    109 H44        -0.1992   38.5256   10.7891 H           1 PRO       0.2036
    110 H45         0.7012   39.1844   11.9980 H           1 PRO       0.2036
    111 H46        -1.5375   39.0604   12.5153 H           1 PRO       0.1099
    112 H47        -1.5868   36.1080   13.0308 H           1 PRO       0.0354
    113 H48        -1.5128   36.5291   11.3327 H           1 PRO       0.0354
    114 H49        -3.6362   37.9370   12.9291 H           1 PRO       0.0380
    115 H50        -3.8073   36.2035   12.6552 H           1 PRO       0.0380
    116 H51        -6.1049   36.9367    9.7761 H           1 PRO       0.0340
    117 H52        -6.1179   37.1517   11.5402 H           1 PRO       0.0340
    118 H53        -5.4803   35.6474   10.8229 H           1 PRO       0.0340
    119 H54        -2.1930   38.9508   14.7114 H           1 PRO       0.1884
    120 H55        -0.6317   37.5617   16.6393 H           1 PRO       0.0797
    121 H56        -0.2437   39.5425   18.1278 H           1 PRO       0.0277
    122 H57        -0.7216   40.6192   16.7982 H           1 PRO       0.0277
    123 H58         0.7235   39.6046   16.6511 H           1 PRO       0.0277
    124 H59        -2.4803   36.4717   17.1010 H           1 PRO       0.1877
    125 H60        -4.4680   35.8884   17.6329 H           1 PRO       0.0750
    126 H61        -3.5839   36.3119   19.8049 H           1 PRO       0.0484
    127 H62        -5.3001   36.6731   19.7975 H           1 PRO       0.0484
    128 H63        -2.2419   38.0773   20.9657 H           1 PRO       0.2386
    129 H64        -5.7808   39.5588   19.5522 H           1 PRO       0.0324
    130 H65        -2.4321   40.4437   21.7316 H           1 PRO       0.1149
@<TRIPOS>BOND
     1     1     2   1
     2     1     7   1
     3     2     3   1
     4     2     5   1
     5     3     4   2
     6     3     8  am
     7     5     6   1
     8     6     7   1
     9     8     9   1
    10     9    10   1
    11     9    12   1
    12    10    11   2
    13    10    18  am
    14    12    13   1
    15    13    14   1
    16    13    15   2
    17    14    16   1
    18    15    17   1
    19    16    17   2
    20    18    19   1
    21    19    20   1
    22    19    22   1
    23    20    21   2
    24    20    26  am
    25    22    23   1
    26    23    24   1
    27    23    25   1
    28    26    27   1
    29    27    28   1
    30    27    30   1
    31    28    29   2
    32    28    32  am
    33    30    31   1
    34    32    33   1
    35    33    34   1
    36    33    41   1
    37    34    35   1
    38    35    36  ar
    39    35    37  ar
    40    36    38  ar
    41    37    39  ar
    42    38    40  ar
    43    39    40  ar
    44    41    42   1
    45    42    43   1
    46    43    44   1
    47    43    48   1
    48    44    45   1
    49    45    46   1
    50    46    47   1
    51    48    49   2
    52    48    50  am
    53    50    51   1
    54    51    52   1
    55    51    54   1
    56    52    53   2
    57    52    55  am
    58    55    56   1
    59    56    57   1
    60    56    59   1
    61    57    58  ar
    62    57    65  ar
    63    59    60   1
    64    60    61   1
    65    60    62   2
    66    61    63   1
    67    62    64   1
    68    63    64   2
    69     1    66   1
    70     1    67   1
    71     2    68   1
    72     5    69   1
    73     5    70   1
    74     6    71   1
    75     6    72   1
    76     7    73   1
    77     7    74   1
    78     8    75   1
    79     9    76   1
    80    12    77   1
    81    12    78   1
    82    14    79   1
    83    15    80   1
    84    16    81   1
    85    18    82   1
    86    19    83   1
    87    22    84   1
    88    22    85   1
    89    23    86   1
    90    24    87   1
    91    24    88   1
    92    24    89   1
    93    25    90   1
    94    25    91   1
    95    25    92   1
    96    26    93   1
    97    27    94   1
    98    30    95   1
    99    30    96   1
   100    31    97   1
   101    32    98   1
   102    33    99   1
   103    34   100   1
   104    34   101   1
   105    36   102   1
   106    37   103   1
   107    38   104   1
   108    39   105   1
   109    40   106   1
   110    41   107   1
   111    41   108   1
   112    42   109   1
   113    42   110   1
   114    43   111   1
   115    44   112   1
   116    44   113   1
   117    45   114   1
   118    45   115   1
   119    47   116   1
   120    47   117   1
   121    47   118   1
   122    50   119   1
   123    51   120   1
   124    54   121   1
   125    54   122   1
   126    54   123   1
   127    55   124   1
   128    56   125   1
   129    59   126   1
   130    59   127   1
   131    61   128   1
   132    62   129   1
   133    63   130   1
@<TRIPOS>SUBSTRUCTURE
     1  PRO      2

