@<TRIPOS>MOLECULE
3uri_ligand_002
   130   133
SMALL
GAST_HUCK
****
This file was generated by PARSER (from files_GN.cpp)

@<TRIPOS>ATOM
      1 N           4.7753   27.5441   18.4935 N.4         1 PRO       0.2461
      2 CA          3.5311   28.3322   18.5967 C.3         1 PRO       0.0670
      3 C           3.3106   29.1505   17.4090 C.2         1 PRO       0.2269
      4 O           3.2474   28.5632   16.3345 O.2         1 PRO      -0.3907
      5 CB          3.6959   29.0491   19.9563 C.3         1 PRO       0.0127
      6 CG          4.3651   27.9857   20.8402 C.3         1 PRO      -0.0053
      7 CD          5.2148   27.1646   19.8480 C.3         1 PRO      -0.0313
      8 N           3.1628   30.4709   17.4732 N.am        1 PRO      -0.2592
      9 CA          3.0418   31.3904   16.3760 C.3         1 PRO       0.1422
     10 C           4.1307   32.3497   16.5124 C.2         1 PRO       0.2060
     11 O           3.9114   33.5253   16.7907 O.2         1 PRO      -0.3942
     12 CB          1.6226   32.0325   16.3489 C.3         1 PRO       0.0427
     13 CG          0.5706   31.0857   15.9203 C.2         1 PRO       0.0561
     14 ND1         0.6303   30.2577   14.8688 N.pl3       1 PRO      -0.2623
     15 CD2        -0.6623   30.8684   16.5214 C.2         1 PRO      -0.0276
     16 CE1        -0.5154   29.5571   14.8161 C.2         1 PRO       0.0875
     17 NE2        -1.3159   29.9206   15.8295 N.2         1 PRO      -0.3437
     18 N           5.3676   31.9369   16.2594 N.am        1 PRO      -0.2636
     19 CA          6.5345   32.7599   16.0537 C.3         1 PRO       0.1312
     20 C           6.4705   33.2478   14.6753 C.2         1 PRO       0.2040
     21 O           6.9829   32.6039   13.7635 O.2         1 PRO      -0.3944
     22 CB          7.8129   31.9378   16.4233 C.3         1 PRO      -0.0101
     23 CG          8.0648   31.8171   17.9726 C.3         1 PRO      -0.0425
     24 CD1         8.3173   30.3520   18.4207 C.3         1 PRO      -0.0625
     25 CD2         9.2311   32.7354   18.4420 C.3         1 PRO      -0.0625
     26 N           5.6739   34.2810   14.4260 N.am        1 PRO      -0.2616
     27 CA          5.2416   34.8364   13.1697 C.3         1 PRO       0.1538
     28 C           4.2703   35.9112   13.3808 C.2         1 PRO       0.2045
     29 O           3.6228   35.9612   14.4204 O.2         1 PRO      -0.3944
     30 CB          4.6205   33.7515   12.2393 C.3         1 PRO       0.0843
     31 OG          3.4404   33.1944   12.8223 O.3         1 PRO      -0.3903
     32 N           3.9813   36.7310   12.3769 N.am        1 PRO      -0.2748
     33 C1          2.9458   37.7286   12.3241 C.3         1 PRO       0.0911
     34 C2          1.4975   37.1309   12.3777 C.3         1 PRO       0.0089
     35 C3          1.3149   35.7748   11.8007 C.ar        1 PRO      -0.0406
     36 C4          2.0600   35.3742   10.6644 C.ar        1 PRO      -0.0603
     37 C5          0.3680   34.8685   12.3380 C.ar        1 PRO      -0.0603
     38 C6          1.8762   34.1008   10.1021 C.ar        1 PRO      -0.0686
     39 C7          0.1545   33.6092   11.7506 C.ar        1 PRO      -0.0686
     40 C8          0.9248   33.2164   10.6335 C.ar        1 PRO      -0.0687
     41 C9          3.1901   38.8461   13.3866 C.3         1 PRO      -0.0062
     42 N2          2.1651   39.9281   13.4141 N.4         1 PRO       0.2479
     43 C10         2.1788   40.9335   12.3148 C.3         1 PRO       0.0676
     44 C11         0.7752   41.6116   12.1521 C.3         1 PRO       0.0169
     45 C12        -0.2573   40.8249   11.3079 C.3         1 PRO       0.0007
     46 SD          0.1450   40.8799    9.5372 S.3         1 PRO      -0.1638
     47 C13        -1.2071   39.8368    8.9406 C.3         1 PRO      -0.0181
     48 C           3.2375   41.9183   12.5479 C.2         1 PRO       0.2268
     49 O           4.2027   41.9446   11.7907 O.2         1 PRO      -0.3907
     50 N           3.1010   42.8357   13.4996 N.am        1 PRO      -0.2613
     51 CA          3.9226   43.9978   13.7287 C.3         1 PRO       0.1283
     52 C           3.2562   44.8931   14.6696 C.2         1 PRO       0.2032
     53 O           2.0624   45.1349   14.5118 O.2         1 PRO      -0.3944
     54 CB          4.2281   44.7842   12.4148 C.3         1 PRO      -0.0244
     55 N           3.9690   45.5515   15.5743 N.am        1 PRO      -0.2677
     56 CA          3.5166   46.5836   16.4675 C.3         1 PRO       0.1056
     57 C           2.4035   46.1443   17.3375 C.2         1 PRO       0.0621
     58 O           1.7664   47.0374   18.1356 O.co2       1 PRO      -0.5664
     59 CB          3.2143   47.9471   15.7660 C.3         1 PRO       0.0372
     60 CG          3.9185   48.1348   14.4872 C.2         1 PRO       0.0555
     61 ND1         3.3581   48.5178   13.3272 N.pl3       1 PRO      -0.2623
     62 CD2         5.2706   47.9220   14.1951 C.2         1 PRO      -0.0276
     63 CE1         4.3008   48.5450   12.3771 C.2         1 PRO       0.0875
     64 NE2         5.4864   48.1615   12.8954 N.2         1 PRO      -0.3437
     65 OXT         2.0733   44.8388   17.4810 O.co2       1 PRO      -0.5664
     66 H1          5.5017   28.1212   18.0672 H           1 PRO       0.2035
     67 H2          4.6276   26.7092   17.9247 H           1 PRO       0.2035
     68 H3          2.6890   27.6361   18.6786 H           1 PRO       0.1099
     69 H4          2.7376   29.3719   20.3711 H           1 PRO       0.0347
     70 H5          4.3634   29.9123   19.8675 H           1 PRO       0.0347
     71 H6          3.6053   27.3469   21.3056 H           1 PRO       0.0320
     72 H7          4.9785   28.4405   21.6257 H           1 PRO       0.0320
     73 H8          6.2770   27.4008   19.9595 H           1 PRO       0.0814
     74 H9          5.0712   26.0912   20.0062 H           1 PRO       0.0814
     75 H10         3.1621   30.8802   18.3539 H           1 PRO       0.1886
     76 H11         3.1734   30.8920   15.4084 H           1 PRO       0.0824
     77 H12         1.6161   32.8706   15.6459 H           1 PRO       0.0491
     78 H13         1.3762   32.4316   17.3368 H           1 PRO       0.0491
     79 H14         1.3757   30.1645   14.2546 H           1 PRO       0.2386
     80 H15        -1.0198   31.3428   17.3529 H           1 PRO       0.0324
     81 H16        -0.7376   28.8453   14.1177 H           1 PRO       0.1149
     82 H17         5.4675   31.0003   16.0172 H           1 PRO       0.1883
     83 H18         6.5232   33.6378   16.7113 H           1 PRO       0.0800
     84 H19         8.6826   32.4071   15.9496 H           1 PRO       0.0315
     85 H20         7.7271   30.9434   15.9720 H           1 PRO       0.0315
     86 H21         7.1756   32.1520   18.5176 H           1 PRO       0.0298
     87 H22         8.5014   30.3027   19.4967 H           1 PRO       0.0232
     88 H23         9.1824   29.9362   17.9000 H           1 PRO       0.0232
     89 H24         7.4441   29.7397   18.1972 H           1 PRO       0.0232
     90 H25         9.0402   33.7753   18.1543 H           1 PRO       0.0232
     91 H26        10.1766   32.4185   17.9901 H           1 PRO       0.0232
     92 H27         9.3351   32.6988   19.5306 H           1 PRO       0.0232
     93 H28         5.3066   34.7130   15.2148 H           1 PRO       0.1884
     94 H29         6.1142   35.2647   12.6755 H           1 PRO       0.0823
     95 H30         5.3297   32.9394   12.0553 H           1 PRO       0.0606
     96 H31         4.3569   34.1857   11.2666 H           1 PRO       0.0606
     97 H32         3.0846   32.5884   12.1350 H           1 PRO       0.2097
     98 H33         4.4940   36.6147   11.5607 H           1 PRO       0.1859
     99 H34         3.0684   38.2067   11.3484 H           1 PRO       0.0632
    100 H35         0.8392   37.7967   11.8207 H           1 PRO       0.0450
    101 H36         1.1537   37.1421   13.4153 H           1 PRO       0.0450
    102 H37         2.7570   35.9916   10.2500 H           1 PRO       0.0557
    103 H38        -0.2007   35.1351   13.1482 H           1 PRO       0.0557
    104 H39         2.4497   33.8132    9.3008 H           1 PRO       0.0599
    105 H40        -0.5570   32.9769   12.1265 H           1 PRO       0.0599
    106 H41         0.7788   32.2947   10.2089 H           1 PRO       0.0559
    107 H42         4.1875   39.2820   13.2471 H           1 PRO       0.0839
    108 H43         3.1839   38.3926   14.3814 H           1 PRO       0.0839
    109 H44         2.2813   40.4163   14.3046 H           1 PRO       0.2036
    110 H45         1.2479   39.4849   13.4257 H           1 PRO       0.2036
    111 H46         2.3996   40.4189   11.3737 H           1 PRO       0.1099
    112 H47         0.8810   42.5993   11.6956 H           1 PRO       0.0354
    113 H48         0.3517   41.7647   13.1452 H           1 PRO       0.0354
    114 H49        -1.2415   41.2825   11.4550 H           1 PRO       0.0380
    115 H50        -0.3105   39.7863   11.6421 H           1 PRO       0.0380
    116 H51        -1.1451   39.7708    7.8525 H           1 PRO       0.0340
    117 H52        -2.1717   40.2770    9.2154 H           1 PRO       0.0340
    118 H53        -1.1255   38.8309    9.3659 H           1 PRO       0.0340
    119 H54         2.3216   42.7498   14.0750 H           1 PRO       0.1884
    120 H55         4.8757   43.6518   14.1494 H           1 PRO       0.0797
    121 H56         4.7891   45.7034   12.6346 H           1 PRO       0.0277
    122 H57         3.2964   45.0567   11.9058 H           1 PRO       0.0277
    123 H58         4.8336   44.1792   11.7314 H           1 PRO       0.0277
    124 H59         4.9146   45.3568   15.6095 H           1 PRO       0.1877
    125 H60         4.3520   46.7648   17.1459 H           1 PRO       0.0750
    126 H61         3.5102   48.7612   16.4277 H           1 PRO       0.0484
    127 H62         2.1414   48.0453   15.5866 H           1 PRO       0.0484
    128 H63         2.4206   48.7654   13.2012 H           1 PRO       0.2386
    129 H64         5.9844   47.6196   14.8623 H           1 PRO       0.0324
    130 H65         4.1465   48.7990   11.3940 H           1 PRO       0.1149
@<TRIPOS>BOND
     1     1     2   1
     2     1     7   1
     3     2     3   1
     4     2     5   1
     5     3     4   2
     6     3     8  am
     7     5     6   1
     8     6     7   1
     9     8     9   1
    10     9    10   1
    11     9    12   1
    12    10    11   2
    13    10    18  am
    14    12    13   1
    15    13    14   1
    16    13    15   2
    17    14    16   1
    18    15    17   1
    19    16    17   2
    20    18    19   1
    21    19    20   1
    22    19    22   1
    23    20    21   2
    24    20    26  am
    25    22    23   1
    26    23    24   1
    27    23    25   1
    28    26    27   1
    29    27    28   1
    30    27    30   1
    31    28    29   2
    32    28    32  am
    33    30    31   1
    34    32    33   1
    35    33    34   1
    36    33    41   1
    37    34    35   1
    38    35    36  ar
    39    35    37  ar
    40    36    38  ar
    41    37    39  ar
    42    38    40  ar
    43    39    40  ar
    44    41    42   1
    45    42    43   1
    46    43    44   1
    47    43    48   1
    48    44    45   1
    49    45    46   1
    50    46    47   1
    51    48    49   2
    52    48    50  am
    53    50    51   1
    54    51    52   1
    55    51    54   1
    56    52    53   2
    57    52    55  am
    58    55    56   1
    59    56    57   1
    60    56    59   1
    61    57    58  ar
    62    57    65  ar
    63    59    60   1
    64    60    61   1
    65    60    62   2
    66    61    63   1
    67    62    64   1
    68    63    64   2
    69     1    66   1
    70     1    67   1
    71     2    68   1
    72     5    69   1
    73     5    70   1
    74     6    71   1
    75     6    72   1
    76     7    73   1
    77     7    74   1
    78     8    75   1
    79     9    76   1
    80    12    77   1
    81    12    78   1
    82    14    79   1
    83    15    80   1
    84    16    81   1
    85    18    82   1
    86    19    83   1
    87    22    84   1
    88    22    85   1
    89    23    86   1
    90    24    87   1
    91    24    88   1
    92    24    89   1
    93    25    90   1
    94    25    91   1
    95    25    92   1
    96    26    93   1
    97    27    94   1
    98    30    95   1
    99    30    96   1
   100    31    97   1
   101    32    98   1
   102    33    99   1
   103    34   100   1
   104    34   101   1
   105    36   102   1
   106    37   103   1
   107    38   104   1
   108    39   105   1
   109    40   106   1
   110    41   107   1
   111    41   108   1
   112    42   109   1
   113    42   110   1
   114    43   111   1
   115    44   112   1
   116    44   113   1
   117    45   114   1
   118    45   115   1
   119    47   116   1
   120    47   117   1
   121    47   118   1
   122    50   119   1
   123    51   120   1
   124    54   121   1
   125    54   122   1
   126    54   123   1
   127    55   124   1
   128    56   125   1
   129    59   126   1
   130    59   127   1
   131    61   128   1
   132    62   129   1
   133    63   130   1
@<TRIPOS>SUBSTRUCTURE
     1  PRO      2

