@<TRIPOS>MOLECULE
3uri_ligand_024
   130   133
SMALL
GAST_HUCK
****
This file was generated by PARSER (from files_GN.cpp)

@<TRIPOS>ATOM
      1 N          -9.8872   26.5638   16.2977 N.4         1 PRO       0.2461
      2 CA         -9.4100   27.8197   16.9047 C.3         1 PRO       0.0670
      3 C          -8.2945   27.5883   17.8047 C.2         1 PRO       0.2269
      4 O          -8.3497   27.9601   18.9719 O.2         1 PRO      -0.3907
      5 CB        -10.7008   28.4143   17.5082 C.3         1 PRO       0.0127
      6 CG        -11.7981   28.0243   16.5012 C.3         1 PRO      -0.0053
      7 CD        -11.2154   26.8241   15.7252 C.3         1 PRO      -0.0313
      8 N          -7.1986   27.0329   17.3077 N.am        1 PRO      -0.2592
      9 CA         -5.9555   26.7807   17.9878 C.3         1 PRO       0.1422
     10 C          -4.8997   27.6321   17.4402 C.2         1 PRO       0.2060
     11 O          -5.0592   28.1993   16.3626 O.2         1 PRO      -0.3942
     12 CB         -5.6558   25.2566   17.8630 C.3         1 PRO       0.0427
     13 CG         -4.4750   24.7856   18.6141 C.2         1 PRO       0.0561
     14 ND1        -3.4483   24.0846   18.1129 N.pl3       1 PRO      -0.2623
     15 CD2        -4.2085   24.9520   19.9696 C.2         1 PRO      -0.0276
     16 CE1        -2.5771   23.8438   19.1025 C.2         1 PRO       0.0875
     17 NE2        -3.0338   24.3678   20.2507 N.2         1 PRO      -0.3437
     18 N          -3.7780   27.8190   18.1262 N.am        1 PRO      -0.2636
     19 CA         -2.6775   28.6590   17.7271 C.3         1 PRO       0.1312
     20 C          -1.4090   28.1841   18.2812 C.2         1 PRO       0.2040
     21 O          -1.2785   28.0690   19.4942 O.2         1 PRO      -0.3944
     22 CB         -2.9499   30.1612   18.0512 C.3         1 PRO      -0.0101
     23 CG         -3.0808   30.5619   19.5684 C.3         1 PRO      -0.0425
     24 CD1        -2.0031   31.6020   19.9918 C.3         1 PRO      -0.0625
     25 CD2        -4.4968   31.0907   19.9210 C.3         1 PRO      -0.0625
     26 N          -0.4077   27.8873   17.4616 N.am        1 PRO      -0.2616
     27 CA          0.9369   27.5270   17.8184 C.3         1 PRO       0.1538
     28 C           1.8545   28.2826   16.9644 C.2         1 PRO       0.2045
     29 O           2.6441   27.6947   16.2384 O.2         1 PRO      -0.3944
     30 CB          1.0766   25.9762   17.7682 C.3         1 PRO       0.0843
     31 OG          0.8530   25.4505   16.4600 O.3         1 PRO      -0.3903
     32 N           1.8462   29.6100   17.0081 N.am        1 PRO      -0.2748
     33 C1          2.7671   30.5058   16.3499 C.3         1 PRO       0.0911
     34 C2          2.2049   31.9626   16.4133 C.3         1 PRO       0.0089
     35 C3          1.0413   32.1781   15.5070 C.ar        1 PRO      -0.0406
     36 C4         -0.2777   32.2792   16.0078 C.ar        1 PRO      -0.0603
     37 C5          1.2443   32.3050   14.1105 C.ar        1 PRO      -0.0603
     38 C6         -1.3645   32.4697   15.1387 C.ar        1 PRO      -0.0686
     39 C7          0.1544   32.4838   13.2376 C.ar        1 PRO      -0.0686
     40 C8         -1.1511   32.5684   13.7541 C.ar        1 PRO      -0.0687
     41 C9          4.2003   30.4041   16.9531 C.3         1 PRO      -0.0062
     42 N2          4.1806   30.3222   18.4349 N.4         1 PRO       0.2479
     43 C10         5.4464   30.5414   19.1900 C.3         1 PRO       0.0676
     44 C11         5.2554   30.3051   20.7325 C.3         1 PRO       0.0169
     45 C12         3.7984   30.1046   21.2415 C.3         1 PRO       0.0007
     46 SD          3.6608   30.2841   23.0395 S.3         1 PRO      -0.1638
     47 C13         3.3881   32.0709   23.1035 C.3         1 PRO      -0.0181
     48 C           6.5915   29.7740   18.6961 C.2         1 PRO       0.2268
     49 O           6.4060   28.7295   18.0840 O.2         1 PRO      -0.3907
     50 N           7.8175   30.1280   19.0638 N.am        1 PRO      -0.2613
     51 CA          9.0402   29.4039   18.7989 C.3         1 PRO       0.1283
     52 C           9.2804   28.2883   19.7219 C.2         1 PRO       0.2032
     53 O          10.4048   27.8026   19.7986 O.2         1 PRO      -0.3944
     54 CB         10.1937   30.4420   18.8055 C.3         1 PRO      -0.0244
     55 N           8.2752   27.7108   20.3738 N.am        1 PRO      -0.2677
     56 CA          8.3093   26.5682   21.2407 C.3         1 PRO       0.1056
     57 C           6.9401   26.0059   21.4057 C.2         1 PRO       0.0621
     58 O           6.6889   25.0908   22.3721 O.co2       1 PRO      -0.5664
     59 CB          8.9616   26.9322   22.6091 C.3         1 PRO       0.0372
     60 CG          8.1458   27.8613   23.4266 C.2         1 PRO       0.0555
     61 ND1         7.5274   27.5578   24.5793 N.pl3       1 PRO      -0.2623
     62 CD2         7.8459   29.1934   23.1639 C.2         1 PRO      -0.0276
     63 CE1         6.8578   28.6414   24.9973 C.2         1 PRO       0.0875
     64 NE2         7.0444   29.6568   24.1366 N.2         1 PRO      -0.3437
     65 OXT         5.9552   26.2400   20.5077 O.co2       1 PRO      -0.5664
     66 H1         -9.9741   25.8497   17.0249 H           1 PRO       0.2035
     67 H2         -9.2360   26.2384   15.5789 H           1 PRO       0.2035
     68 H3         -9.0559   28.4819   16.1081 H           1 PRO       0.1099
     69 H4        -10.6285   29.4994   17.6317 H           1 PRO       0.0347
     70 H5        -10.9232   27.9565   18.4783 H           1 PRO       0.0347
     71 H6        -11.9988   28.8574   15.8207 H           1 PRO       0.0320
     72 H7        -12.7261   27.7554   17.0144 H           1 PRO       0.0320
     73 H8        -11.8408   25.9348   15.8288 H           1 PRO       0.0814
     74 H9        -11.1086   27.0657   14.6656 H           1 PRO       0.0814
     75 H10        -7.2253   26.7867   16.3651 H           1 PRO       0.1886
     76 H11        -6.0582   27.0227   19.0502 H           1 PRO       0.0824
     77 H12        -5.5383   24.9939   16.8076 H           1 PRO       0.0491
     78 H13        -6.5171   24.6992   18.2406 H           1 PRO       0.0491
     79 H14        -3.3494   23.8047   17.1898 H           1 PRO       0.2386
     80 H15        -4.7977   25.4426   20.6453 H           1 PRO       0.0324
     81 H16        -1.6996   23.3328   18.9994 H           1 PRO       0.1149
     82 H17        -3.6886   27.3558   18.9754 H           1 PRO       0.1883
     83 H18        -2.5996   28.5990   16.6333 H           1 PRO       0.0800
     84 H19        -3.8526   30.4615   17.5082 H           1 PRO       0.0315
     85 H20        -2.1427   30.7292   17.5887 H           1 PRO       0.0315
     86 H21        -2.9328   29.6779   20.1937 H           1 PRO       0.0298
     87 H22        -2.0695   31.8137   21.0613 H           1 PRO       0.0232
     88 H23        -2.1414   32.5372   19.4422 H           1 PRO       0.0232
     89 H24        -1.0021   31.2184   19.7826 H           1 PRO       0.0232
     90 H25        -5.2464   30.3301   19.6893 H           1 PRO       0.0232
     91 H26        -4.7226   31.9955   19.3502 H           1 PRO       0.0232
     92 H27        -4.5629   31.3217   20.9876 H           1 PRO       0.0232
     93 H28        -0.5963   27.9352   16.5105 H           1 PRO       0.1884
     94 H29         1.1536   27.8286   18.8503 H           1 PRO       0.0823
     95 H30         0.3593   25.5168   18.4558 H           1 PRO       0.0606
     96 H31         2.0805   25.6860   18.0899 H           1 PRO       0.0606
     97 H32        -0.1094   25.5509   16.3137 H           1 PRO       0.2097
     98 H33         1.1745   30.0163   17.5792 H           1 PRO       0.1859
     99 H34         2.8381   30.2186   15.2969 H           1 PRO       0.0632
    100 H35         2.9829   32.6782   16.1288 H           1 PRO       0.0450
    101 H36         1.9372   32.1950   17.4494 H           1 PRO       0.0450
    102 H37        -0.4529   32.2017   17.0130 H           1 PRO       0.0557
    103 H38         2.1861   32.2567   13.7188 H           1 PRO       0.0557
    104 H39        -2.3163   32.5411   15.5127 H           1 PRO       0.0599
    105 H40         0.3120   32.5613   12.2311 H           1 PRO       0.0599
    106 H41        -1.9440   32.6936   13.1174 H           1 PRO       0.0559
    107 H42         4.8088   31.2516   16.6281 H           1 PRO       0.0839
    108 H43         4.6706   29.4996   16.5679 H           1 PRO       0.0839
    109 H44         3.7990   29.4088   18.6991 H           1 PRO       0.2036
    110 H45         3.5351   31.0491   18.7509 H           1 PRO       0.2036
    111 H46         5.6817   31.6018   19.0454 H           1 PRO       0.1099
    112 H47         5.7081   31.1533   21.2540 H           1 PRO       0.0354
    113 H48         5.8065   29.4141   21.0500 H           1 PRO       0.0354
    114 H49         3.4801   29.0898   20.9872 H           1 PRO       0.0380
    115 H50         3.1057   30.7932   20.7588 H           1 PRO       0.0380
    116 H51         3.3411   32.3838   24.1461 H           1 PRO       0.0340
    117 H52         2.4426   32.3203   22.6193 H           1 PRO       0.0340
    118 H53         4.2000   32.6044   22.6083 H           1 PRO       0.0340
    119 H54         7.9029   30.9436   19.5866 H           1 PRO       0.1884
    120 H55         8.9967   28.9914   17.7849 H           1 PRO       0.0797
    121 H56        11.1404   29.9700   18.5314 H           1 PRO       0.0277
    122 H57        10.2970   30.8969   19.7928 H           1 PRO       0.0277
    123 H58         9.9880   31.2283   18.0759 H           1 PRO       0.0277
    124 H59         7.3990   28.0956   20.2432 H           1 PRO       0.1877
    125 H60         8.8986   25.7800   20.7639 H           1 PRO       0.0750
    126 H61         9.9449   27.3833   22.4492 H           1 PRO       0.0484
    127 H62         9.1187   26.0104   23.1768 H           1 PRO       0.0484
    128 H63         7.5481   26.6890   25.0178 H           1 PRO       0.2386
    129 H64         8.1704   29.7394   22.3637 H           1 PRO       0.0324
    130 H65         6.2940   28.6825   25.8465 H           1 PRO       0.1149
@<TRIPOS>BOND
     1     1     2   1
     2     1     7   1
     3     2     3   1
     4     2     5   1
     5     3     4   2
     6     3     8  am
     7     5     6   1
     8     6     7   1
     9     8     9   1
    10     9    10   1
    11     9    12   1
    12    10    11   2
    13    10    18  am
    14    12    13   1
    15    13    14   1
    16    13    15   2
    17    14    16   1
    18    15    17   1
    19    16    17   2
    20    18    19   1
    21    19    20   1
    22    19    22   1
    23    20    21   2
    24    20    26  am
    25    22    23   1
    26    23    24   1
    27    23    25   1
    28    26    27   1
    29    27    28   1
    30    27    30   1
    31    28    29   2
    32    28    32  am
    33    30    31   1
    34    32    33   1
    35    33    34   1
    36    33    41   1
    37    34    35   1
    38    35    36  ar
    39    35    37  ar
    40    36    38  ar
    41    37    39  ar
    42    38    40  ar
    43    39    40  ar
    44    41    42   1
    45    42    43   1
    46    43    44   1
    47    43    48   1
    48    44    45   1
    49    45    46   1
    50    46    47   1
    51    48    49   2
    52    48    50  am
    53    50    51   1
    54    51    52   1
    55    51    54   1
    56    52    53   2
    57    52    55  am
    58    55    56   1
    59    56    57   1
    60    56    59   1
    61    57    58  ar
    62    57    65  ar
    63    59    60   1
    64    60    61   1
    65    60    62   2
    66    61    63   1
    67    62    64   1
    68    63    64   2
    69     1    66   1
    70     1    67   1
    71     2    68   1
    72     5    69   1
    73     5    70   1
    74     6    71   1
    75     6    72   1
    76     7    73   1
    77     7    74   1
    78     8    75   1
    79     9    76   1
    80    12    77   1
    81    12    78   1
    82    14    79   1
    83    15    80   1
    84    16    81   1
    85    18    82   1
    86    19    83   1
    87    22    84   1
    88    22    85   1
    89    23    86   1
    90    24    87   1
    91    24    88   1
    92    24    89   1
    93    25    90   1
    94    25    91   1
    95    25    92   1
    96    26    93   1
    97    27    94   1
    98    30    95   1
    99    30    96   1
   100    31    97   1
   101    32    98   1
   102    33    99   1
   103    34   100   1
   104    34   101   1
   105    36   102   1
   106    37   103   1
   107    38   104   1
   108    39   105   1
   109    40   106   1
   110    41   107   1
   111    41   108   1
   112    42   109   1
   113    42   110   1
   114    43   111   1
   115    44   112   1
   116    44   113   1
   117    45   114   1
   118    45   115   1
   119    47   116   1
   120    47   117   1
   121    47   118   1
   122    50   119   1
   123    51   120   1
   124    54   121   1
   125    54   122   1
   126    54   123   1
   127    55   124   1
   128    56   125   1
   129    59   126   1
   130    59   127   1
   131    61   128   1
   132    62   129   1
   133    63   130   1
@<TRIPOS>SUBSTRUCTURE
     1  PRO      2

