@<TRIPOS>MOLECULE
3uri_ligand_057
   130   133
SMALL
GAST_HUCK
****
This file was generated by PARSER (from files_GN.cpp)

@<TRIPOS>ATOM
      1 N          -2.1981   29.1440   17.3521 N.4         1 PRO       0.2461
      2 CA         -0.8961   29.4461   17.9680 C.3         1 PRO       0.0670
      3 C          -0.5508   28.5039   19.0250 C.2         1 PRO       0.2269
      4 O          -0.2237   28.9158   20.1350 O.2         1 PRO      -0.3907
      5 CB         -1.0517   30.9363   18.3616 C.3         1 PRO       0.0127
      6 CG         -1.9378   31.5390   17.2542 C.3         1 PRO      -0.0053
      7 CD         -2.5838   30.3214   16.5604 C.3         1 PRO      -0.0313
      8 N          -0.4945   27.2067   18.7390 N.am        1 PRO      -0.2592
      9 CA         -0.0386   26.1491   19.6040 C.3         1 PRO       0.1422
     10 C           1.3968   25.9776   19.3861 C.2         1 PRO       0.2060
     11 O           1.7785   25.3517   18.4048 O.2         1 PRO      -0.3942
     12 CB         -0.8364   24.8364   19.3352 C.3         1 PRO       0.0427
     13 CG         -2.1174   24.7703   20.0685 C.2         1 PRO       0.0561
     14 ND1        -3.1415   25.6330   19.9720 N.pl3       1 PRO      -0.2623
     15 CD2        -2.5027   23.8112   20.9978 C.2         1 PRO      -0.0276
     16 CE1        -4.1112   25.2302   20.8038 C.2         1 PRO       0.0875
     17 NE2        -3.7300   24.1144   21.4459 N.2         1 PRO      -0.3437
     18 N           2.2617   26.5010   20.2506 N.am        1 PRO      -0.2636
     19 CA          3.6903   26.3143   20.3092 C.3         1 PRO       0.1312
     20 C           4.4554   26.9748   19.2514 C.2         1 PRO       0.2040
     21 O           3.8796   27.6497   18.4041 O.2         1 PRO      -0.3944
     22 CB          4.0366   24.7938   20.4965 C.3         1 PRO      -0.0101
     23 CG          3.9116   24.2071   21.9469 C.3         1 PRO      -0.0425
     24 CD1         5.0491   24.6896   22.8898 C.3         1 PRO      -0.0625
     25 CD2         2.5177   24.4254   22.5972 C.3         1 PRO      -0.0625
     26 N           5.7852   26.9606   19.3189 N.am        1 PRO      -0.2616
     27 CA          6.7755   27.6363   18.5251 C.3         1 PRO       0.1538
     28 C           7.2771   28.8265   19.2093 C.2         1 PRO       0.2045
     29 O           8.4280   29.1816   18.9763 O.2         1 PRO      -0.3944
     30 CB          6.4000   27.9345   17.0448 C.3         1 PRO       0.0843
     31 OG          7.5547   27.9891   16.2114 O.3         1 PRO      -0.3903
     32 N           6.4856   29.5517   19.9932 N.am        1 PRO      -0.2748
     33 C1          6.7624   30.8172   20.6211 C.3         1 PRO       0.0911
     34 C2          7.9253   30.7583   21.6598 C.3         1 PRO       0.0089
     35 C3          7.5439   30.0867   22.9348 C.ar        1 PRO      -0.0406
     36 C4          7.7254   28.6955   23.1144 C.ar        1 PRO      -0.0603
     37 C5          6.9966   30.8405   24.0001 C.ar        1 PRO      -0.0603
     38 C6          7.3628   28.0711   24.3225 C.ar        1 PRO      -0.0686
     39 C7          6.6377   30.2180   25.2113 C.ar        1 PRO      -0.0686
     40 C8          6.8199   28.8344   25.3721 C.ar        1 PRO      -0.0687
     41 C9          6.9650   31.9408   19.5637 C.3         1 PRO      -0.0062
     42 N2          5.9041   31.8859   18.5248 N.4         1 PRO       0.2479
     43 C10         5.8590   32.9761   17.5135 C.3         1 PRO       0.0676
     44 C11         6.9967   32.8449   16.4511 C.3         1 PRO       0.0169
     45 C12         7.0980   33.9897   15.4063 C.3         1 PRO       0.0007
     46 SD          5.6957   34.2058   14.2744 S.3         1 PRO      -0.1638
     47 C13         5.7925   32.6552   13.3539 C.3         1 PRO      -0.0181
     48 C           4.5140   32.9558   16.9444 C.2         1 PRO       0.2268
     49 O           3.7334   33.8440   17.2711 O.2         1 PRO      -0.3907
     50 N           4.1254   31.9537   16.1517 N.am        1 PRO      -0.2613
     51 CA          2.8590   31.7736   15.4849 C.3         1 PRO       0.1283
     52 C           2.5109   32.8680   14.5793 C.2         1 PRO       0.2032
     53 O           2.6783   34.0091   14.9832 O.2         1 PRO      -0.3944
     54 CB          1.7127   31.4659   16.4835 C.3         1 PRO      -0.0244
     55 N           2.0095   32.6305   13.3686 N.am        1 PRO      -0.2677
     56 CA          1.6445   33.5434   12.3097 C.3         1 PRO       0.1056
     57 C           1.6830   35.0054   12.5956 C.2         1 PRO       0.0621
     58 O           0.7890   35.5953   13.4263 O.co2       1 PRO      -0.5664
     59 CB          0.2886   33.1226   11.6643 C.3         1 PRO       0.0372
     60 CG         -0.9082   33.6224   12.3761 C.2         1 PRO       0.0555
     61 ND1        -1.7977   34.4959   11.8833 N.pl3       1 PRO      -0.2623
     62 CD2        -1.3225   33.3407   13.6763 C.2         1 PRO      -0.0276
     63 CE1        -2.7127   34.7489   12.8290 C.2         1 PRO       0.0875
     64 NE2        -2.4308   34.0469   13.9396 N.2         1 PRO      -0.3437
     65 OXT         2.7120   35.7609   12.1478 O.co2       1 PRO      -0.5664
     66 H1         -2.8931   28.9991   18.0884 H           1 PRO       0.2035
     67 H2         -2.1393   28.3135   16.7584 H           1 PRO       0.2035
     68 H3         -0.1209   29.3696   17.1953 H           1 PRO       0.1099
     69 H4         -0.0814   31.4391   18.4170 H           1 PRO       0.0347
     70 H5         -1.5636   31.0340   19.3263 H           1 PRO       0.0347
     71 H6         -1.3321   32.1128   16.5445 H           1 PRO       0.0320
     72 H7         -2.6960   32.2005   17.6838 H           1 PRO       0.0320
     73 H8         -3.6717   30.4056   16.5312 H           1 PRO       0.0814
     74 H9         -2.2048   30.2169   15.5403 H           1 PRO       0.0814
     75 H10        -0.7603   26.9413   17.8387 H           1 PRO       0.1886
     76 H11        -0.1998   26.4087   20.6571 H           1 PRO       0.0824
     77 H12        -0.2249   23.9782   19.6317 H           1 PRO       0.0491
     78 H13        -1.0502   24.7359   18.2669 H           1 PRO       0.0491
     79 H14        -3.1607   26.4325   19.4268 H           1 PRO       0.2386
     80 H15        -1.9450   23.0118   21.3080 H           1 PRO       0.0324
     81 H16        -5.0003   25.7120   20.9425 H           1 PRO       0.1149
     82 H17         1.8804   27.0304   20.9687 H           1 PRO       0.1883
     83 H18         3.9959   26.8333   21.2188 H           1 PRO       0.0800
     84 H19         5.0633   24.6029   20.1695 H           1 PRO       0.0315
     85 H20         3.4077   24.1973   19.8294 H           1 PRO       0.0315
     86 H21         4.0319   23.1223   21.8531 H           1 PRO       0.0298
     87 H22         5.0311   24.1224   23.8228 H           1 PRO       0.0232
     88 H23         4.9392   25.7469   23.1329 H           1 PRO       0.0232
     89 H24         6.0231   24.5393   22.4214 H           1 PRO       0.0232
     90 H25         1.7256   24.0868   21.9256 H           1 PRO       0.0232
     91 H26         2.3557   25.4795   22.8305 H           1 PRO       0.0232
     92 H27         2.4421   23.8566   23.5274 H           1 PRO       0.0232
     93 H28         6.1515   26.4704   20.0724 H           1 PRO       0.1884
     94 H29         7.5985   26.9190   18.4789 H           1 PRO       0.0823
     95 H30         5.8743   28.8864   16.9485 H           1 PRO       0.0606
     96 H31         5.7591   27.1439   16.6564 H           1 PRO       0.0606
     97 H32         8.0850   28.7450   16.5557 H           1 PRO       0.2097
     98 H33         5.5887   29.2090   20.1275 H           1 PRO       0.1859
     99 H34         5.8519   31.0814   21.1658 H           1 PRO       0.0632
    100 H35         8.2525   31.7750   21.8912 H           1 PRO       0.0450
    101 H36         8.7866   30.2594   21.2103 H           1 PRO       0.0450
    102 H37         8.1146   28.1217   22.3617 H           1 PRO       0.0557
    103 H38         6.8597   31.8486   23.9042 H           1 PRO       0.0557
    104 H39         7.4916   27.0651   24.4383 H           1 PRO       0.0599
    105 H40         6.2436   30.7734   25.9746 H           1 PRO       0.0599
    106 H41         6.5596   28.3822   26.2518 H           1 PRO       0.0559
    107 H42         7.9481   31.8330   19.1037 H           1 PRO       0.0839
    108 H43         6.9264   32.9123   20.0652 H           1 PRO       0.0839
    109 H44         5.0062   31.8900   19.0149 H           1 PRO       0.2036
    110 H45         5.9868   30.9969   18.0285 H           1 PRO       0.2036
    111 H46         6.0044   33.9275   18.0432 H           1 PRO       0.1099
    112 H47         6.9195   31.8806   15.9454 H           1 PRO       0.0354
    113 H48         7.9518   32.8371   16.9798 H           1 PRO       0.0354
    114 H49         7.9921   33.8249   14.8028 H           1 PRO       0.0380
    115 H50         7.2405   34.9371   15.9318 H           1 PRO       0.0380
    116 H51         5.1965   32.7423   12.4449 H           1 PRO       0.0340
    117 H52         5.3917   31.8456   13.9591 H           1 PRO       0.0340
    118 H53         6.8224   32.4286   13.0867 H           1 PRO       0.0340
    119 H54         4.7859   31.2560   15.9954 H           1 PRO       0.1884
    120 H55         2.9886   30.8637   14.8885 H           1 PRO       0.0797
    121 H56         0.8199   31.1553   15.9401 H           1 PRO       0.0277
    122 H57         1.4582   32.3370   17.0901 H           1 PRO       0.0277
    123 H58         2.0086   30.6565   17.1518 H           1 PRO       0.0277
    124 H59         1.8977   31.6905   13.1501 H           1 PRO       0.1877
    125 H60         2.4041   33.3735   11.5453 H           1 PRO       0.0750
    126 H61         0.2323   32.0310   11.6142 H           1 PRO       0.0484
    127 H62         0.2617   33.4885   10.6311 H           1 PRO       0.0484
    128 H63        -1.7734   34.8882   10.9965 H           1 PRO       0.2386
    129 H64        -0.8636   32.7077   14.3306 H           1 PRO       0.0324
    130 H65        -3.5102   35.3776   12.7206 H           1 PRO       0.1149
@<TRIPOS>BOND
     1     1     2   1
     2     1     7   1
     3     2     3   1
     4     2     5   1
     5     3     4   2
     6     3     8  am
     7     5     6   1
     8     6     7   1
     9     8     9   1
    10     9    10   1
    11     9    12   1
    12    10    11   2
    13    10    18  am
    14    12    13   1
    15    13    14   1
    16    13    15   2
    17    14    16   1
    18    15    17   1
    19    16    17   2
    20    18    19   1
    21    19    20   1
    22    19    22   1
    23    20    21   2
    24    20    26  am
    25    22    23   1
    26    23    24   1
    27    23    25   1
    28    26    27   1
    29    27    28   1
    30    27    30   1
    31    28    29   2
    32    28    32  am
    33    30    31   1
    34    32    33   1
    35    33    34   1
    36    33    41   1
    37    34    35   1
    38    35    36  ar
    39    35    37  ar
    40    36    38  ar
    41    37    39  ar
    42    38    40  ar
    43    39    40  ar
    44    41    42   1
    45    42    43   1
    46    43    44   1
    47    43    48   1
    48    44    45   1
    49    45    46   1
    50    46    47   1
    51    48    49   2
    52    48    50  am
    53    50    51   1
    54    51    52   1
    55    51    54   1
    56    52    53   2
    57    52    55  am
    58    55    56   1
    59    56    57   1
    60    56    59   1
    61    57    58  ar
    62    57    65  ar
    63    59    60   1
    64    60    61   1
    65    60    62   2
    66    61    63   1
    67    62    64   1
    68    63    64   2
    69     1    66   1
    70     1    67   1
    71     2    68   1
    72     5    69   1
    73     5    70   1
    74     6    71   1
    75     6    72   1
    76     7    73   1
    77     7    74   1
    78     8    75   1
    79     9    76   1
    80    12    77   1
    81    12    78   1
    82    14    79   1
    83    15    80   1
    84    16    81   1
    85    18    82   1
    86    19    83   1
    87    22    84   1
    88    22    85   1
    89    23    86   1
    90    24    87   1
    91    24    88   1
    92    24    89   1
    93    25    90   1
    94    25    91   1
    95    25    92   1
    96    26    93   1
    97    27    94   1
    98    30    95   1
    99    30    96   1
   100    31    97   1
   101    32    98   1
   102    33    99   1
   103    34   100   1
   104    34   101   1
   105    36   102   1
   106    37   103   1
   107    38   104   1
   108    39   105   1
   109    40   106   1
   110    41   107   1
   111    41   108   1
   112    42   109   1
   113    42   110   1
   114    43   111   1
   115    44   112   1
   116    44   113   1
   117    45   114   1
   118    45   115   1
   119    47   116   1
   120    47   117   1
   121    47   118   1
   122    50   119   1
   123    51   120   1
   124    54   121   1
   125    54   122   1
   126    54   123   1
   127    55   124   1
   128    56   125   1
   129    59   126   1
   130    59   127   1
   131    61   128   1
   132    62   129   1
   133    63   130   1
@<TRIPOS>SUBSTRUCTURE
     1  PRO      2

