@<TRIPOS>MOLECULE
3uri_ligand_073
   130   133
SMALL
GAST_HUCK
****
This file was generated by PARSER (from files_GN.cpp)

@<TRIPOS>ATOM
      1 N          -2.8281   28.1369   20.9620 N.4         1 PRO       0.2461
      2 CA         -1.5066   28.7315   21.2180 C.3         1 PRO       0.0670
      3 C          -0.4488   27.7333   21.2526 C.2         1 PRO       0.2269
      4 O           0.4268   27.7805   20.3992 O.2         1 PRO      -0.3907
      5 CB         -1.7068   29.5116   22.5319 C.3         1 PRO       0.0127
      6 CG         -3.1486   30.0420   22.4195 C.3         1 PRO      -0.0053
      7 CD         -3.8482   29.0927   21.4221 C.3         1 PRO      -0.0313
      8 N          -0.4599   26.7676   22.1675 N.am        1 PRO      -0.2592
      9 CA          0.4364   25.6381   22.2664 C.3         1 PRO       0.1422
     10 C           1.8289   26.0102   22.5453 C.2         1 PRO       0.2060
     11 O           2.1212   27.1906   22.7137 O.2         1 PRO      -0.3942
     12 CB          0.3113   24.6868   21.0274 C.3         1 PRO       0.0427
     13 CG         -1.0368   24.6771   20.4247 C.2         1 PRO       0.0561
     14 ND1        -2.1069   23.9881   20.8476 N.pl3       1 PRO      -0.2623
     15 CD2        -1.4682   25.4353   19.3403 C.2         1 PRO      -0.0276
     16 CE1        -3.1511   24.3034   20.0642 C.2         1 PRO       0.0875
     17 NE2        -2.7703   25.1934   19.1304 N.2         1 PRO      -0.3437
     18 N           2.7760   25.0768   22.5945 N.am        1 PRO      -0.2636
     19 CA          4.1943   25.2989   22.6662 C.3         1 PRO       0.1312
     20 C           4.6256   25.6085   21.3073 C.2         1 PRO       0.2040
     21 O           4.6678   24.7184   20.4652 O.2         1 PRO      -0.3944
     22 CB          4.9610   24.0889   23.2868 C.3         1 PRO      -0.0101
     23 CG          4.7923   23.8994   24.8313 C.3         1 PRO      -0.0425
     24 CD1         3.3150   23.6976   25.2635 C.3         1 PRO      -0.0625
     25 CD2         5.6710   22.7217   25.3376 C.3         1 PRO      -0.0625
     26 N           4.8302   26.8740   20.9785 N.am        1 PRO      -0.2616
     27 CA          5.2300   27.3969   19.7088 C.3         1 PRO       0.1538
     28 C           6.1969   28.4609   19.9445 C.2         1 PRO       0.2045
     29 O           7.3642   28.2933   19.6189 O.2         1 PRO      -0.3944
     30 CB          3.9825   27.9049   18.9431 C.3         1 PRO       0.0843
     31 OG          4.3544   28.7903   17.8854 O.3         1 PRO      -0.3903
     32 N           5.7895   29.5976   20.5023 N.am        1 PRO      -0.2748
     33 C1          6.5558   30.7848   20.7668 C.3         1 PRO       0.0911
     34 C2          7.7285   30.5375   21.7670 C.3         1 PRO       0.0089
     35 C3          7.2732   29.9708   23.0680 C.ar        1 PRO      -0.0406
     36 C4          6.9828   28.5936   23.2122 C.ar        1 PRO      -0.0603
     37 C5          7.0959   30.8184   24.1880 C.ar        1 PRO      -0.0603
     38 C6          6.5191   28.0793   24.4375 C.ar        1 PRO      -0.0686
     39 C7          6.6332   30.3064   25.4129 C.ar        1 PRO      -0.0686
     40 C8          6.3352   28.9376   25.5357 C.ar        1 PRO      -0.0687
     41 C9          7.0065   31.4810   19.4473 C.3         1 PRO      -0.0062
     42 N2          5.8604   31.6031   18.5118 N.4         1 PRO       0.2479
     43 C10         5.8664   32.7044   17.5159 C.3         1 PRO       0.0676
     44 C11         6.9726   32.5696   16.4271 C.3         1 PRO       0.0169
     45 C12         7.0926   33.7625   15.4364 C.3         1 PRO       0.0007
     46 SD          5.6477   34.1226   14.3933 S.3         1 PRO      -0.1638
     47 C13         5.6412   32.6409   13.3503 C.3         1 PRO      -0.0181
     48 C           4.5138   32.7654   16.9736 C.2         1 PRO       0.2268
     49 O           3.7919   33.6782   17.3538 O.2         1 PRO      -0.3907
     50 N           4.0486   31.8071   16.1683 N.am        1 PRO      -0.2613
     51 CA          2.7300   31.7082   15.5905 C.3         1 PRO       0.1283
     52 C           2.4044   32.8291   14.7035 C.2         1 PRO       0.2032
     53 O           2.5540   33.9653   15.1262 O.2         1 PRO      -0.3944
     54 CB          1.6525   31.4668   16.6815 C.3         1 PRO      -0.0244
     55 N           2.0149   32.6124   13.4503 N.am        1 PRO      -0.2677
     56 CA          1.8612   33.5157   12.3331 C.3         1 PRO       0.1056
     57 C           1.9222   34.9811   12.5869 C.2         1 PRO       0.0621
     58 O           0.9262   35.6237   13.2426 O.co2       1 PRO      -0.5664
     59 CB          0.6352   33.0996   11.4488 C.3         1 PRO       0.0372
     60 CG         -0.6211   33.8457   11.6685 C.2         1 PRO       0.0555
     61 ND1        -0.9327   35.0077   11.0796 N.pl3       1 PRO      -0.2623
     62 CD2        -1.7013   33.5125   12.4798 C.2         1 PRO      -0.0276
     63 CE1        -2.1401   35.3919   11.5097 C.2         1 PRO       0.0875
     64 NE2        -2.6257   34.4778   12.3680 N.2         1 PRO      -0.3437
     65 OXT         3.0262   35.7025   12.2768 O.co2       1 PRO      -0.5664
     66 H1         -2.9289   27.2695   21.4988 H           1 PRO       0.2035
     67 H2         -2.9486   27.9342   19.9669 H           1 PRO       0.2035
     68 H3         -1.3121   29.4534   20.4190 H           1 PRO       0.1099
     69 H4         -0.9818   30.3254   22.6343 H           1 PRO       0.0347
     70 H5         -1.6299   28.8559   23.4076 H           1 PRO       0.0347
     71 H6         -3.1427   31.0643   22.0287 H           1 PRO       0.0320
     72 H7         -3.6470   30.0394   23.3945 H           1 PRO       0.0320
     73 H8         -4.6693   28.5523   21.8982 H           1 PRO       0.0814
     74 H9         -4.2393   29.6511   20.5683 H           1 PRO       0.0814
     75 H10        -1.1817   26.7898   22.8146 H           1 PRO       0.1886
     76 H11         0.0950   25.0702   23.1368 H           1 PRO       0.0824
     77 H12         0.5496   23.6624   21.3187 H           1 PRO       0.0491
     78 H13         1.0388   24.9830   20.2663 H           1 PRO       0.0491
     79 H14        -2.1314   23.3793   21.6045 H           1 PRO       0.2386
     80 H15        -0.8969   26.0842   18.7992 H           1 PRO       0.0324
     81 H16        -4.0991   23.9353   20.1662 H           1 PRO       0.1149
     82 H17         2.4928   24.1590   22.4537 H           1 PRO       0.1883
     83 H18         4.4247   26.1623   23.3006 H           1 PRO       0.0800
     84 H19         6.0289   24.2404   23.0872 H           1 PRO       0.0315
     85 H20         4.6693   23.1680   22.7697 H           1 PRO       0.0315
     86 H21         5.1640   24.8025   25.3289 H           1 PRO       0.0298
     87 H22         3.2533   23.5178   26.3373 H           1 PRO       0.0232
     88 H23         2.8761   22.8465   24.7411 H           1 PRO       0.0232
     89 H24         2.7258   24.5860   25.0473 H           1 PRO       0.0232
     90 H25         6.7237   22.9038   25.1066 H           1 PRO       0.0232
     91 H26         5.3680   21.7844   24.8653 H           1 PRO       0.0232
     92 H27         5.5823   22.6137   26.4207 H           1 PRO       0.0232
     93 H28         4.6748   27.5273   21.6782 H           1 PRO       0.1884
     94 H29         5.6885   26.6186   19.0892 H           1 PRO       0.0823
     95 H30         3.2902   28.4284   19.6151 H           1 PRO       0.0606
     96 H31         3.4505   27.0535   18.5037 H           1 PRO       0.0606
     97 H32         3.5270   28.9464   17.3813 H           1 PRO       0.2097
     98 H33         4.8471   29.6455   20.7404 H           1 PRO       0.1859
     99 H34         5.8539   31.4781   21.2435 H           1 PRO       0.0632
    100 H35         8.2400   31.4824   21.9595 H           1 PRO       0.0450
    101 H36         8.4608   29.8791   21.2975 H           1 PRO       0.0450
    102 H37         7.1006   27.9519   22.4229 H           1 PRO       0.0557
    103 H38         7.3037   31.8169   24.1148 H           1 PRO       0.0557
    104 H39         6.3083   27.0825   24.5309 H           1 PRO       0.0599
    105 H40         6.5042   30.9307   26.2114 H           1 PRO       0.0599
    106 H41         5.9979   28.5664   26.4264 H           1 PRO       0.0559
    107 H42         7.7967   30.9044   18.9659 H           1 PRO       0.0839
    108 H43         7.4049   32.4661   19.7013 H           1 PRO       0.0839
    109 H44         5.0228   31.7431   19.0761 H           1 PRO       0.2036
    110 H45         5.7551   30.7131   18.0143 H           1 PRO       0.2036
    111 H46         6.0718   33.6303   18.0666 H           1 PRO       0.1099
    112 H47         6.8431   31.6404   15.8710 H           1 PRO       0.0354
    113 H48         7.9378   32.5047   16.9335 H           1 PRO       0.0354
    114 H49         7.9453   33.5803   14.7756 H           1 PRO       0.0380
    115 H50         7.3129   34.6735   16.0008 H           1 PRO       0.0380
    116 H51         4.9871   32.8185   12.4905 H           1 PRO       0.0340
    117 H52         5.2548   31.7865   13.9167 H           1 PRO       0.0340
    118 H53         6.6491   32.4124   12.9883 H           1 PRO       0.0340
    119 H54         4.6621   31.0824   15.9484 H           1 PRO       0.1884
    120 H55         2.7563   30.7896   14.9951 H           1 PRO       0.0797
    121 H56         0.6970   31.2129   16.2161 H           1 PRO       0.0277
    122 H57         1.5117   32.3501   17.3072 H           1 PRO       0.0277
    123 H58         1.9565   30.6339   17.3236 H           1 PRO       0.0277
    124 H59         1.9115   31.6752   13.2181 H           1 PRO       0.1877
    125 H60         2.7457   33.2899   11.7291 H           1 PRO       0.0750
    126 H61         0.4340   32.0305   11.5694 H           1 PRO       0.0484
    127 H62         0.9111   33.2406   10.3996 H           1 PRO       0.0484
    128 H63        -0.3702   35.4899   10.4519 H           1 PRO       0.2386
    129 H64        -1.7872   32.6762   13.0575 H           1 PRO       0.0324
    130 H65        -2.6176   36.2432   11.2165 H           1 PRO       0.1149
@<TRIPOS>BOND
     1     1     2   1
     2     1     7   1
     3     2     3   1
     4     2     5   1
     5     3     4   2
     6     3     8  am
     7     5     6   1
     8     6     7   1
     9     8     9   1
    10     9    10   1
    11     9    12   1
    12    10    11   2
    13    10    18  am
    14    12    13   1
    15    13    14   1
    16    13    15   2
    17    14    16   1
    18    15    17   1
    19    16    17   2
    20    18    19   1
    21    19    20   1
    22    19    22   1
    23    20    21   2
    24    20    26  am
    25    22    23   1
    26    23    24   1
    27    23    25   1
    28    26    27   1
    29    27    28   1
    30    27    30   1
    31    28    29   2
    32    28    32  am
    33    30    31   1
    34    32    33   1
    35    33    34   1
    36    33    41   1
    37    34    35   1
    38    35    36  ar
    39    35    37  ar
    40    36    38  ar
    41    37    39  ar
    42    38    40  ar
    43    39    40  ar
    44    41    42   1
    45    42    43   1
    46    43    44   1
    47    43    48   1
    48    44    45   1
    49    45    46   1
    50    46    47   1
    51    48    49   2
    52    48    50  am
    53    50    51   1
    54    51    52   1
    55    51    54   1
    56    52    53   2
    57    52    55  am
    58    55    56   1
    59    56    57   1
    60    56    59   1
    61    57    58  ar
    62    57    65  ar
    63    59    60   1
    64    60    61   1
    65    60    62   2
    66    61    63   1
    67    62    64   1
    68    63    64   2
    69     1    66   1
    70     1    67   1
    71     2    68   1
    72     5    69   1
    73     5    70   1
    74     6    71   1
    75     6    72   1
    76     7    73   1
    77     7    74   1
    78     8    75   1
    79     9    76   1
    80    12    77   1
    81    12    78   1
    82    14    79   1
    83    15    80   1
    84    16    81   1
    85    18    82   1
    86    19    83   1
    87    22    84   1
    88    22    85   1
    89    23    86   1
    90    24    87   1
    91    24    88   1
    92    24    89   1
    93    25    90   1
    94    25    91   1
    95    25    92   1
    96    26    93   1
    97    27    94   1
    98    30    95   1
    99    30    96   1
   100    31    97   1
   101    32    98   1
   102    33    99   1
   103    34   100   1
   104    34   101   1
   105    36   102   1
   106    37   103   1
   107    38   104   1
   108    39   105   1
   109    40   106   1
   110    41   107   1
   111    41   108   1
   112    42   109   1
   113    42   110   1
   114    43   111   1
   115    44   112   1
   116    44   113   1
   117    45   114   1
   118    45   115   1
   119    47   116   1
   120    47   117   1
   121    47   118   1
   122    50   119   1
   123    51   120   1
   124    54   121   1
   125    54   122   1
   126    54   123   1
   127    55   124   1
   128    56   125   1
   129    59   126   1
   130    59   127   1
   131    61   128   1
   132    62   129   1
   133    63   130   1
@<TRIPOS>SUBSTRUCTURE
     1  PRO      2

