@<TRIPOS>MOLECULE
3uri_ligand_055
   130   133
SMALL
GAST_HUCK
****
This file was generated by PARSER (from files_GN.cpp)

@<TRIPOS>ATOM
      1 N           8.5198   28.9407   17.9753 N.4         1 PRO       0.2461
      2 CA          7.6878   27.7324   17.8199 C.3         1 PRO       0.0670
      3 C           6.4226   28.0189   17.1567 C.2         1 PRO       0.2269
      4 O           6.2324   27.5821   16.0262 O.2         1 PRO      -0.3907
      5 CB          7.5599   27.1652   19.2534 C.3         1 PRO       0.0127
      6 CG          8.8994   27.5288   19.9159 C.3         1 PRO      -0.0053
      7 CD          9.4054   28.7611   19.1389 C.3         1 PRO      -0.0313
      8 N           5.5174   28.7888   17.7594 N.am        1 PRO      -0.2592
      9 CA          4.2653   29.2545   17.2176 C.3         1 PRO       0.1422
     10 C           4.3868   30.6628   16.8143 C.2         1 PRO       0.2060
     11 O           3.3683   31.2927   16.5618 O.2         1 PRO      -0.3942
     12 CB          3.0729   28.9828   18.2074 C.3         1 PRO       0.0427
     13 CG          3.2985   27.9887   19.2835 C.2         1 PRO       0.0561
     14 ND1         3.7991   26.7521   19.1526 N.pl3       1 PRO      -0.2623
     15 CD2         3.0379   28.1576   20.6408 C.2         1 PRO      -0.0276
     16 CE1         3.8660   26.1891   20.3682 C.2         1 PRO       0.0875
     17 NE2         3.3993   27.0429   21.2945 N.2         1 PRO      -0.3437
     18 N           5.5776   31.1978   16.5341 N.am        1 PRO      -0.2636
     19 CA          5.8690   32.5129   16.0161 C.3         1 PRO       0.1312
     20 C           5.2369   32.7986   14.7221 C.2         1 PRO       0.2040
     21 O           4.6408   31.9187   14.1129 O.2         1 PRO      -0.3944
     22 CB          7.4285   32.7067   15.9425 C.3         1 PRO      -0.0101
     23 CG          8.1359   33.3174   17.1969 C.3         1 PRO      -0.0425
     24 CD1         7.7525   34.8013   17.4323 C.3         1 PRO      -0.0625
     25 CD2         7.9470   32.4918   18.4971 C.3         1 PRO      -0.0625
     26 N           5.2725   34.0469   14.2641 N.am        1 PRO      -0.2616
     27 CA          4.6314   34.5920   13.0982 C.3         1 PRO       0.1538
     28 C           3.1803   34.4687   13.2142 C.2         1 PRO       0.2045
     29 O           2.6357   35.1533   14.0700 O.2         1 PRO      -0.3944
     30 CB          5.2788   34.1280   11.7595 C.3         1 PRO       0.0843
     31 OG          5.7197   32.7757   11.7922 O.3         1 PRO      -0.3903
     32 N           2.4735   33.6318   12.4668 N.am        1 PRO      -0.2748
     33 C1          1.0370   33.5120   12.4108 C.3         1 PRO       0.0911
     34 C2          0.5462   33.9561   10.9815 C.3         1 PRO       0.0089
     35 C3         -0.5847   34.9262   11.0439 C.ar        1 PRO      -0.0406
     36 C4         -1.8729   34.5100   11.4557 C.ar        1 PRO      -0.0603
     37 C5         -0.3789   36.3020   10.7701 C.ar        1 PRO      -0.0603
     38 C6         -2.9195   35.4421   11.6129 C.ar        1 PRO      -0.0686
     39 C7         -1.4206   37.2335   10.9317 C.ar        1 PRO      -0.0686
     40 C8         -2.6881   36.8059   11.3597 C.ar        1 PRO      -0.0687
     41 C9          0.6131   32.0572   12.7882 C.3         1 PRO      -0.0062
     42 N2          0.5569   31.7384   14.2444 N.4         1 PRO       0.2479
     43 C10        -0.4732   32.3600   15.1357 C.3         1 PRO       0.0676
     44 C11        -1.9426   32.1350   14.6357 C.3         1 PRO       0.0169
     45 C12        -3.0553   32.8693   15.4348 C.3         1 PRO       0.0007
     46 SD         -3.1702   34.6201   14.9791 S.3         1 PRO      -0.1638
     47 C13        -4.8300   34.9357   15.6185 C.3         1 PRO      -0.0181
     48 C          -0.2096   31.8751   16.4956 C.2         1 PRO       0.2268
     49 O           0.7805   32.2941   17.0796 O.2         1 PRO      -0.3907
     50 N          -1.0164   31.0026   17.0896 N.am        1 PRO      -0.2613
     51 CA         -0.9507   30.4615   18.4232 C.3         1 PRO       0.1283
     52 C          -1.2725   29.0310   18.4239 C.2         1 PRO       0.2032
     53 O          -1.6254   28.4787   17.3859 O.2         1 PRO      -0.3944
     54 CB         -1.9564   31.2500   19.3060 C.3         1 PRO      -0.0244
     55 N          -1.2327   28.3335   19.5552 N.am        1 PRO      -0.2677
     56 CA         -1.6666   26.9716   19.7264 C.3         1 PRO       0.1056
     57 C          -3.1444   26.9057   19.6681 C.2         1 PRO       0.0621
     58 O          -3.9035   27.5955   20.5538 O.co2       1 PRO      -0.5664
     59 CB         -1.0962   26.3312   21.0267 C.3         1 PRO       0.0372
     60 CG         -1.5445   26.9458   22.2939 C.2         1 PRO       0.0555
     61 ND1        -2.4912   26.4570   23.1084 N.pl3       1 PRO      -0.2623
     62 CD2        -1.0726   28.1067   22.8993 C.2         1 PRO      -0.0276
     63 CE1        -2.6112   27.2782   24.1613 C.2         1 PRO       0.0875
     64 NE2        -1.7429   28.2976   24.0472 N.2         1 PRO      -0.3437
     65 OXT        -3.7770   26.2696   18.6538 O.co2       1 PRO      -0.5664
     66 H1          7.9064   29.7388   18.1504 H           1 PRO       0.2035
     67 H2          9.0786   29.1216   17.1327 H           1 PRO       0.2035
     68 H3          8.2641   27.0195   17.2208 H           1 PRO       0.1099
     69 H4          7.3923   26.0837   19.2469 H           1 PRO       0.0347
     70 H5          6.7453   27.6474   19.8024 H           1 PRO       0.0347
     71 H6          9.6037   26.6989   19.8122 H           1 PRO       0.0320
     72 H7          8.7708   27.7513   20.9789 H           1 PRO       0.0320
     73 H8          9.3684   29.6592   19.7594 H           1 PRO       0.0814
     74 H9         10.4316   28.6087   18.7997 H           1 PRO       0.0814
     75 H10         5.7508   29.1184   18.6423 H           1 PRO       0.1886
     76 H11         4.0355   28.7088   16.2951 H           1 PRO       0.0824
     77 H12         2.2096   28.6369   17.6313 H           1 PRO       0.0491
     78 H13         2.7710   29.9150   18.6899 H           1 PRO       0.0491
     79 H14         4.0953   26.3377   18.3262 H           1 PRO       0.2386
     80 H15         2.6462   28.9933   21.0781 H           1 PRO       0.0324
     81 H16         4.2305   25.2548   20.5650 H           1 PRO       0.1149
     82 H17         6.3484   30.6306   16.6917 H           1 PRO       0.1883
     83 H18         5.4484   33.2301   16.7267 H           1 PRO       0.0800
     84 H19         7.6963   33.3499   15.0988 H           1 PRO       0.0315
     85 H20         7.8953   31.7417   15.7223 H           1 PRO       0.0315
     86 H21         9.2091   33.3079   16.9809 H           1 PRO       0.0298
     87 H22         8.4068   35.2418   18.1873 H           1 PRO       0.0232
     88 H23         6.7230   34.8830   17.7793 H           1 PRO       0.0232
     89 H24         7.8601   35.3789   16.5133 H           1 PRO       0.0232
     90 H25         8.3381   31.4859   18.3535 H           1 PRO       0.0232
     91 H26         6.8918   32.4259   18.7809 H           1 PRO       0.0232
     92 H27         8.5059   32.9502   19.3198 H           1 PRO       0.0232
     93 H28         5.7490   34.6887   14.8149 H           1 PRO       0.1884
     94 H29         4.8394   35.6655   13.1304 H           1 PRO       0.0823
     95 H30         6.1475   34.7564   11.5431 H           1 PRO       0.0606
     96 H31         4.5721   34.2479   10.9347 H           1 PRO       0.0606
     97 H32         6.0388   32.5747   10.8777 H           1 PRO       0.2097
     98 H33         2.9650   33.0878   11.8346 H           1 PRO       0.1859
     99 H34         0.5780   34.1700   13.1552 H           1 PRO       0.0632
    100 H35         0.2394   33.0920   10.3855 H           1 PRO       0.0450
    101 H36         1.3702   34.4125   10.4255 H           1 PRO       0.0450
    102 H37        -2.0613   33.5220   11.6507 H           1 PRO       0.0557
    103 H38         0.5390   36.6369   10.4702 H           1 PRO       0.0557
    104 H39        -3.8487   35.1264   11.9041 H           1 PRO       0.0599
    105 H40        -1.2531   38.2257   10.7490 H           1 PRO       0.0599
    106 H41        -3.4437   37.4828   11.4812 H           1 PRO       0.0559
    107 H42         1.3244   31.3622   12.3327 H           1 PRO       0.0839
    108 H43        -0.3534   31.8259   12.3443 H           1 PRO       0.0839
    109 H44         1.4794   31.9590   14.6309 H           1 PRO       0.2036
    110 H45         0.4318   30.7251   14.3073 H           1 PRO       0.2036
    111 H46        -0.3075   33.4388   15.1339 H           1 PRO       0.1099
    112 H47        -2.1555   31.0634   14.6213 H           1 PRO       0.0354
    113 H48        -2.0363   32.4803   13.6065 H           1 PRO       0.0354
    114 H49        -2.8901   32.7937   16.5095 H           1 PRO       0.0380
    115 H50        -4.0074   32.3869   15.2103 H           1 PRO       0.0380
    116 H51        -5.0937   35.9758   15.4229 H           1 PRO       0.0340
    117 H52        -4.8642   34.7527   16.6940 H           1 PRO       0.0340
    118 H53        -5.5472   34.2884   15.1106 H           1 PRO       0.0340
    119 H54        -1.7910   30.7157   16.5807 H           1 PRO       0.1884
    120 H55         0.0534   30.5921   18.8424 H           1 PRO       0.0797
    121 H56        -1.8871   30.9322   20.3489 H           1 PRO       0.0277
    122 H57        -2.9816   31.0915   18.9588 H           1 PRO       0.0277
    123 H58        -1.7409   32.3204   19.2638 H           1 PRO       0.0277
    124 H59        -0.9278   28.8044   20.3445 H           1 PRO       0.1877
    125 H60        -1.2612   26.3756   18.9021 H           1 PRO       0.0750
    126 H61        -0.0057   26.3660   20.9961 H           1 PRO       0.0484
    127 H62        -1.3794   25.2749   21.0401 H           1 PRO       0.0484
    128 H63        -3.0064   25.6457   22.9615 H           1 PRO       0.2386
    129 H64        -0.3317   28.7126   22.5455 H           1 PRO       0.0324
    130 H65        -3.2638   27.1461   24.9387 H           1 PRO       0.1149
@<TRIPOS>BOND
     1     1     2   1
     2     1     7   1
     3     2     3   1
     4     2     5   1
     5     3     4   2
     6     3     8  am
     7     5     6   1
     8     6     7   1
     9     8     9   1
    10     9    10   1
    11     9    12   1
    12    10    11   2
    13    10    18  am
    14    12    13   1
    15    13    14   1
    16    13    15   2
    17    14    16   1
    18    15    17   1
    19    16    17   2
    20    18    19   1
    21    19    20   1
    22    19    22   1
    23    20    21   2
    24    20    26  am
    25    22    23   1
    26    23    24   1
    27    23    25   1
    28    26    27   1
    29    27    28   1
    30    27    30   1
    31    28    29   2
    32    28    32  am
    33    30    31   1
    34    32    33   1
    35    33    34   1
    36    33    41   1
    37    34    35   1
    38    35    36  ar
    39    35    37  ar
    40    36    38  ar
    41    37    39  ar
    42    38    40  ar
    43    39    40  ar
    44    41    42   1
    45    42    43   1
    46    43    44   1
    47    43    48   1
    48    44    45   1
    49    45    46   1
    50    46    47   1
    51    48    49   2
    52    48    50  am
    53    50    51   1
    54    51    52   1
    55    51    54   1
    56    52    53   2
    57    52    55  am
    58    55    56   1
    59    56    57   1
    60    56    59   1
    61    57    58  ar
    62    57    65  ar
    63    59    60   1
    64    60    61   1
    65    60    62   2
    66    61    63   1
    67    62    64   1
    68    63    64   2
    69     1    66   1
    70     1    67   1
    71     2    68   1
    72     5    69   1
    73     5    70   1
    74     6    71   1
    75     6    72   1
    76     7    73   1
    77     7    74   1
    78     8    75   1
    79     9    76   1
    80    12    77   1
    81    12    78   1
    82    14    79   1
    83    15    80   1
    84    16    81   1
    85    18    82   1
    86    19    83   1
    87    22    84   1
    88    22    85   1
    89    23    86   1
    90    24    87   1
    91    24    88   1
    92    24    89   1
    93    25    90   1
    94    25    91   1
    95    25    92   1
    96    26    93   1
    97    27    94   1
    98    30    95   1
    99    30    96   1
   100    31    97   1
   101    32    98   1
   102    33    99   1
   103    34   100   1
   104    34   101   1
   105    36   102   1
   106    37   103   1
   107    38   104   1
   108    39   105   1
   109    40   106   1
   110    41   107   1
   111    41   108   1
   112    42   109   1
   113    42   110   1
   114    43   111   1
   115    44   112   1
   116    44   113   1
   117    45   114   1
   118    45   115   1
   119    47   116   1
   120    47   117   1
   121    47   118   1
   122    50   119   1
   123    51   120   1
   124    54   121   1
   125    54   122   1
   126    54   123   1
   127    55   124   1
   128    56   125   1
   129    59   126   1
   130    59   127   1
   131    61   128   1
   132    62   129   1
   133    63   130   1
@<TRIPOS>SUBSTRUCTURE
     1  PRO      2

