@<TRIPOS>MOLECULE
3uri_ligand_012
   130   133
SMALL
GAST_HUCK
****
This file was generated by PARSER (from files_GN.cpp)

@<TRIPOS>ATOM
      1 N           4.1334   27.5353   18.4638 N.4         1 PRO       0.2461
      2 CA          2.8799   28.2659   18.1879 C.3         1 PRO       0.0670
      3 C           3.0326   29.2199   17.0993 C.2         1 PRO       0.2269
      4 O           3.1283   28.7473   15.9725 O.2         1 PRO      -0.3907
      5 CB          2.4571   28.8051   19.5716 C.3         1 PRO       0.0127
      6 CG          2.8550   27.6655   20.5210 C.3         1 PRO      -0.0053
      7 CD          4.1160   27.0718   19.8631 C.3         1 PRO      -0.0313
      8 N           3.0212   30.5395   17.2846 N.am        1 PRO      -0.2592
      9 CA          3.0806   31.5600   16.2761 C.3         1 PRO       0.1422
     10 C           4.1140   32.5197   16.6473 C.2         1 PRO       0.2060
     11 O           3.8066   33.6066   17.1385 O.2         1 PRO      -0.3942
     12 CB          1.6647   32.1909   16.1057 C.3         1 PRO       0.0427
     13 CG          0.6064   31.2124   15.7788 C.2         1 PRO       0.0561
     14 ND1         0.6397   30.2945   14.8013 N.pl3       1 PRO      -0.2623
     15 CD2        -0.6266   31.0640   16.4096 C.2         1 PRO      -0.0276
     16 CE1        -0.5131   29.6079   14.8256 C.2         1 PRO       0.0875
     17 NE2        -1.3028   30.0743   15.8073 N.2         1 PRO      -0.3437
     18 N           5.3844   32.2630   16.3645 N.am        1 PRO      -0.2636
     19 CA          6.4768   33.2020   16.4642 C.3         1 PRO       0.1312
     20 C           6.4864   34.1920   15.3763 C.2         1 PRO       0.2040
     21 O           7.4334   34.9663   15.3031 O.2         1 PRO      -0.3944
     22 CB          7.8397   32.4345   16.5661 C.3         1 PRO      -0.0101
     23 CG          8.0872   31.6913   17.9305 C.3         1 PRO      -0.0425
     24 CD1         7.8260   30.1622   17.8314 C.3         1 PRO      -0.0625
     25 CD2         9.5148   31.9591   18.4928 C.3         1 PRO      -0.0625
     26 N           5.4748   34.3044   14.5211 N.am        1 PRO      -0.2616
     27 CA          5.3463   35.1608   13.3679 C.3         1 PRO       0.1538
     28 C           4.1823   36.0447   13.4642 C.2         1 PRO       0.2045
     29 O           3.5326   36.0591   14.5015 O.2         1 PRO      -0.3944
     30 CB          5.2673   34.2295   12.1229 C.3         1 PRO       0.0843
     31 OG          5.5448   32.8635   12.4451 O.3         1 PRO      -0.3903
     32 N           3.8078   36.7931   12.4316 N.am        1 PRO      -0.2748
     33 C1          2.6529   37.6500   12.3382 C.3         1 PRO       0.0911
     34 C2          1.3047   36.9301   12.6673 C.3         1 PRO       0.0089
     35 C3          1.0805   35.6402   11.9499 C.ar        1 PRO      -0.0406
     36 C4          0.4704   35.6207   10.6747 C.ar        1 PRO      -0.0603
     37 C5          1.4241   34.4070   12.5538 C.ar        1 PRO      -0.0603
     38 C6          0.1919   34.3988   10.0295 C.ar        1 PRO      -0.0686
     39 C7          1.1616   33.1857   11.9036 C.ar        1 PRO      -0.0686
     40 C8          0.5359   33.1837   10.6474 C.ar        1 PRO      -0.0687
     41 C9          2.8215   38.9397   13.1950 C.3         1 PRO      -0.0062
     42 N2          4.1143   39.6390   12.9639 N.4         1 PRO       0.2479
     43 C10         4.0897   41.0968   12.6470 C.3         1 PRO       0.0676
     44 C11         3.6459   41.3220   11.1646 C.3         1 PRO       0.0169
     45 C12         3.8419   42.7674   10.6139 C.3         1 PRO       0.0007
     46 SD          2.4344   43.8774   10.8747 S.3         1 PRO      -0.1638
     47 C13         1.2053   43.0546    9.8268 C.3         1 PRO      -0.0181
     48 C           3.3755   41.8400   13.6887 C.2         1 PRO       0.2268
     49 O           3.9581   42.0657   14.7450 O.2         1 PRO      -0.3907
     50 N           2.0941   42.1612   13.5478 N.am        1 PRO      -0.2613
     51 CA          1.2242   42.7695   14.5168 C.3         1 PRO       0.1283
     52 C           0.2018   41.7888   14.8662 C.2         1 PRO       0.2032
     53 O          -0.9876   42.0473   14.7154 O.2         1 PRO      -0.3944
     54 CB          0.7035   44.1084   13.9297 C.3         1 PRO      -0.0244
     55 N           0.5950   40.5998   15.3027 N.am        1 PRO      -0.2677
     56 CA         -0.1970   39.4465   15.6351 C.3         1 PRO       0.1056
     57 C          -0.5761   38.6504   14.4461 C.2         1 PRO       0.0621
     58 O          -1.0284   39.2476   13.3206 O.co2       1 PRO      -0.5664
     59 CB         -1.4348   39.7597   16.5306 C.3         1 PRO       0.0372
     60 CG         -1.1148   40.4648   17.7885 C.2         1 PRO       0.0555
     61 ND1        -1.3842   41.7516   18.0361 N.pl3       1 PRO      -0.2623
     62 CD2        -0.5289   39.9589   18.9465 C.2         1 PRO      -0.0276
     63 CE1        -0.9853   42.0415   19.2814 C.2         1 PRO       0.0875
     64 NE2        -0.4612   40.9434   19.8557 N.2         1 PRO      -0.3437
     65 OXT        -0.8893   37.3417   14.5912 O.co2       1 PRO      -0.5664
     66 H1          4.9304   28.1634   18.3386 H           1 PRO       0.2035
     67 H2          4.2278   26.7362   17.8316 H           1 PRO       0.2035
     68 H3          2.1285   27.5311   17.8753 H           1 PRO       0.1099
     69 H4          1.3843   29.0152   19.6190 H           1 PRO       0.0347
     70 H5          3.0181   29.7075   19.8348 H           1 PRO       0.0347
     71 H6          2.0575   26.9156   20.5613 H           1 PRO       0.0320
     72 H7          3.0541   28.0310   21.5328 H           1 PRO       0.0320
     73 H8          5.0154   27.4331   20.3669 H           1 PRO       0.0814
     74 H9          4.1004   25.9809   19.8981 H           1 PRO       0.0814
     75 H10         2.9391   30.8656   18.1946 H           1 PRO       0.1886
     76 H11         3.3599   31.1497   15.2978 H           1 PRO       0.0824
     77 H12         1.6899   32.9209   15.2946 H           1 PRO       0.0491
     78 H13         1.3852   32.7268   17.0172 H           1 PRO       0.0491
     79 H14         1.3770   30.1396   14.1867 H           1 PRO       0.2386
     80 H15        -0.9668   31.6233   17.1938 H           1 PRO       0.0324
     81 H16        -0.7559   28.8443   14.1900 H           1 PRO       0.1149
     82 H17         5.5833   31.3983   15.9647 H           1 PRO       0.1883
     83 H18         6.3607   33.7632   17.3993 H           1 PRO       0.0800
     84 H19         8.6446   33.1646   16.4144 H           1 PRO       0.0315
     85 H20         7.9184   31.7318   15.7302 H           1 PRO       0.0315
     86 H21         7.3929   32.0865   18.6770 H           1 PRO       0.0298
     87 H22         7.9543   29.6909   18.8063 H           1 PRO       0.0232
     88 H23         8.5183   29.7006   17.1260 H           1 PRO       0.0232
     89 H24         6.8070   29.9694   17.4982 H           1 PRO       0.0232
     90 H25         9.6606   33.0296   18.6576 H           1 PRO       0.0232
     91 H26        10.2770   31.6073   17.7965 H           1 PRO       0.0232
     92 H27         9.6522   31.4516   19.4504 H           1 PRO       0.0232
     93 H28         4.7267   33.7035   14.6582 H           1 PRO       0.1884
     94 H29         6.2283   35.7955   13.2610 H           1 PRO       0.0823
     95 H30         5.9891   34.5524   11.3705 H           1 PRO       0.0606
     96 H31         4.2661   34.2617   11.6795 H           1 PRO       0.0606
     97 H32         5.0661   32.3282   11.7807 H           1 PRO       0.2097
     98 H33         4.3515   36.7287   11.6287 H           1 PRO       0.1859
     99 H34         2.5952   37.9630   11.2931 H           1 PRO       0.0632
    100 H35         0.4741   37.6027   12.4279 H           1 PRO       0.0450
    101 H36         1.2391   36.7615   13.7447 H           1 PRO       0.0450
    102 H37         0.2003   36.4952   10.2183 H           1 PRO       0.0557
    103 H38         1.8693   34.3914   13.4715 H           1 PRO       0.0557
    104 H39        -0.2702   34.3995    9.1196 H           1 PRO       0.0599
    105 H40         1.4186   32.3056   12.3519 H           1 PRO       0.0599
    106 H41         0.3275   32.2970   10.1847 H           1 PRO       0.0559
    107 H42         2.7666   38.6885   14.2549 H           1 PRO       0.0839
    108 H43         1.9748   39.5979   12.9902 H           1 PRO       0.0839
    109 H44         4.6044   39.1724   12.1991 H           1 PRO       0.2036
    110 H45         4.6881   39.5205   13.8028 H           1 PRO       0.2036
    111 H46         5.1314   41.4325   12.6924 H           1 PRO       0.1099
    112 H47         2.6082   41.0047   11.0489 H           1 PRO       0.0354
    113 H48         4.2390   40.6443   10.5442 H           1 PRO       0.0354
    114 H49         4.0608   42.7325    9.5448 H           1 PRO       0.0380
    115 H50         4.7050   43.2330   11.0916 H           1 PRO       0.0380
    116 H51         0.2631   43.6068    9.8880 H           1 PRO       0.0340
    117 H52         1.0321   42.0259   10.1575 H           1 PRO       0.0340
    118 H53         1.5428   43.0524    8.7871 H           1 PRO       0.0340
    119 H54         1.6801   41.9452   12.6951 H           1 PRO       0.1884
    120 H55         1.7643   43.0315   15.4305 H           1 PRO       0.0797
    121 H56         0.0880   44.6279   14.6683 H           1 PRO       0.0277
    122 H57         0.1100   43.9459   13.0252 H           1 PRO       0.0277
    123 H58         1.5519   44.7546   13.6738 H           1 PRO       0.0277
    124 H59         1.5504   40.4951   15.4246 H           1 PRO       0.1877
    125 H60         0.4604   38.8078   16.2312 H           1 PRO       0.0750
    126 H61        -1.9491   38.8245   16.7911 H           1 PRO       0.0484
    127 H62        -2.1430   40.3691   15.9630 H           1 PRO       0.0484
    128 H63        -1.8054   42.3704   17.4165 H           1 PRO       0.2386
    129 H64        -0.2201   38.9984   19.0983 H           1 PRO       0.0324
    130 H65        -1.0761   42.9547   19.7292 H           1 PRO       0.1149
@<TRIPOS>BOND
     1     1     2   1
     2     1     7   1
     3     2     3   1
     4     2     5   1
     5     3     4   2
     6     3     8  am
     7     5     6   1
     8     6     7   1
     9     8     9   1
    10     9    10   1
    11     9    12   1
    12    10    11   2
    13    10    18  am
    14    12    13   1
    15    13    14   1
    16    13    15   2
    17    14    16   1
    18    15    17   1
    19    16    17   2
    20    18    19   1
    21    19    20   1
    22    19    22   1
    23    20    21   2
    24    20    26  am
    25    22    23   1
    26    23    24   1
    27    23    25   1
    28    26    27   1
    29    27    28   1
    30    27    30   1
    31    28    29   2
    32    28    32  am
    33    30    31   1
    34    32    33   1
    35    33    34   1
    36    33    41   1
    37    34    35   1
    38    35    36  ar
    39    35    37  ar
    40    36    38  ar
    41    37    39  ar
    42    38    40  ar
    43    39    40  ar
    44    41    42   1
    45    42    43   1
    46    43    44   1
    47    43    48   1
    48    44    45   1
    49    45    46   1
    50    46    47   1
    51    48    49   2
    52    48    50  am
    53    50    51   1
    54    51    52   1
    55    51    54   1
    56    52    53   2
    57    52    55  am
    58    55    56   1
    59    56    57   1
    60    56    59   1
    61    57    58  ar
    62    57    65  ar
    63    59    60   1
    64    60    61   1
    65    60    62   2
    66    61    63   1
    67    62    64   1
    68    63    64   2
    69     1    66   1
    70     1    67   1
    71     2    68   1
    72     5    69   1
    73     5    70   1
    74     6    71   1
    75     6    72   1
    76     7    73   1
    77     7    74   1
    78     8    75   1
    79     9    76   1
    80    12    77   1
    81    12    78   1
    82    14    79   1
    83    15    80   1
    84    16    81   1
    85    18    82   1
    86    19    83   1
    87    22    84   1
    88    22    85   1
    89    23    86   1
    90    24    87   1
    91    24    88   1
    92    24    89   1
    93    25    90   1
    94    25    91   1
    95    25    92   1
    96    26    93   1
    97    27    94   1
    98    30    95   1
    99    30    96   1
   100    31    97   1
   101    32    98   1
   102    33    99   1
   103    34   100   1
   104    34   101   1
   105    36   102   1
   106    37   103   1
   107    38   104   1
   108    39   105   1
   109    40   106   1
   110    41   107   1
   111    41   108   1
   112    42   109   1
   113    42   110   1
   114    43   111   1
   115    44   112   1
   116    44   113   1
   117    45   114   1
   118    45   115   1
   119    47   116   1
   120    47   117   1
   121    47   118   1
   122    50   119   1
   123    51   120   1
   124    54   121   1
   125    54   122   1
   126    54   123   1
   127    55   124   1
   128    56   125   1
   129    59   126   1
   130    59   127   1
   131    61   128   1
   132    62   129   1
   133    63   130   1
@<TRIPOS>SUBSTRUCTURE
     1  PRO      2

