@<TRIPOS>MOLECULE
3uri_ligand_059
   130   133
SMALL
GAST_HUCK
****
This file was generated by PARSER (from files_GN.cpp)

@<TRIPOS>ATOM
      1 N          -4.6024   27.8387   22.3696 N.4         1 PRO       0.2461
      2 CA         -3.8237   26.5928   22.4971 C.3         1 PRO       0.0670
      3 C          -2.6688   26.4866   21.6225 C.2         1 PRO       0.2269
      4 O          -2.6262   27.1159   20.5709 O.2         1 PRO      -0.3907
      5 CB         -4.8825   25.4993   22.2222 C.3         1 PRO       0.0127
      6 CG         -6.1926   26.0759   22.7872 C.3         1 PRO      -0.0053
      7 CD         -5.9220   27.5856   22.9653 C.3         1 PRO      -0.0313
      8 N          -1.6970   25.6453   21.9670 N.am        1 PRO      -0.2592
      9 CA         -0.5465   25.2567   21.2037 C.3         1 PRO       0.1422
     10 C           0.3181   26.3898   20.8876 C.2         1 PRO       0.2060
     11 O           0.2642   26.9337   19.7833 O.2         1 PRO      -0.3942
     12 CB         -0.9867   24.3593   19.9936 C.3         1 PRO       0.0427
     13 CG         -0.0216   23.2767   19.7187 C.2         1 PRO       0.0561
     14 ND1         0.8931   23.2315   18.7406 N.pl3       1 PRO      -0.2623
     15 CD2         0.1217   22.0977   20.4469 C.2         1 PRO      -0.0276
     16 CE1         1.5748   22.0807   18.8585 C.2         1 PRO       0.0875
     17 NE2         1.1076   21.3738   19.8997 N.2         1 PRO      -0.3437
     18 N           1.1223   26.8798   21.8311 N.am        1 PRO      -0.2636
     19 CA          1.9905   28.0197   21.7192 C.3         1 PRO       0.1312
     20 C           3.2598   27.6422   21.1020 C.2         1 PRO       0.2040
     21 O           3.9686   26.8203   21.6760 O.2         1 PRO      -0.3944
     22 CB          2.1656   28.6556   23.1361 C.3         1 PRO      -0.0101
     23 CG          3.0817   29.9218   23.2358 C.3         1 PRO      -0.0425
     24 CD1         2.6175   31.0859   22.3205 C.3         1 PRO      -0.0625
     25 CD2         3.1762   30.4071   24.7095 C.3         1 PRO      -0.0625
     26 N           3.6498   28.2153   19.9681 N.am        1 PRO      -0.2616
     27 CA          4.8842   27.9885   19.2594 C.3         1 PRO       0.1538
     28 C           5.9448   28.9235   19.6341 C.2         1 PRO       0.2045
     29 O           7.0664   28.7439   19.1701 O.2         1 PRO      -0.3944
     30 CB          4.6057   28.0482   17.7301 C.3         1 PRO       0.0843
     31 OG          4.6589   29.3838   17.2265 O.3         1 PRO      -0.3903
     32 N           5.7057   29.9764   20.4134 N.am        1 PRO      -0.2748
     33 C1          6.5776   31.0729   20.7325 C.3         1 PRO       0.0911
     34 C2          7.8036   30.6640   21.6080 C.3         1 PRO       0.0089
     35 C3          7.4083   30.0197   22.8894 C.ar        1 PRO      -0.0406
     36 C4          7.3124   28.6129   23.0035 C.ar        1 PRO      -0.0603
     37 C5          7.1066   30.8147   24.0204 C.ar        1 PRO      -0.0603
     38 C6          6.9212   28.0161   24.2166 C.ar        1 PRO      -0.0686
     39 C7          6.7290   30.2193   25.2368 C.ar        1 PRO      -0.0686
     40 C8          6.6262   28.8179   25.3335 C.ar        1 PRO      -0.0687
     41 C9          7.0039   31.8725   19.4634 C.3         1 PRO      -0.0062
     42 N2          5.9113   31.8791   18.4614 N.4         1 PRO       0.2479
     43 C10         5.8488   32.9794   17.4687 C.3         1 PRO       0.0676
     44 C11         6.9502   32.8530   16.3675 C.3         1 PRO       0.0169
     45 C12         7.0276   34.0102   15.3347 C.3         1 PRO       0.0007
     46 SD          5.5801   34.2536   14.2621 S.3         1 PRO      -0.1638
     47 C13         5.5771   32.6801   13.3673 C.3         1 PRO      -0.0181
     48 C           4.4865   32.9577   16.9523 C.2         1 PRO       0.2268
     49 O           3.7055   33.8273   17.3236 O.2         1 PRO      -0.3907
     50 N           4.0707   31.9433   16.1887 N.am        1 PRO      -0.2613
     51 CA          2.7680   31.7195   15.6207 C.3         1 PRO       0.1283
     52 C           2.3530   32.7998   14.7347 C.2         1 PRO       0.2032
     53 O           2.4849   33.9540   15.1219 O.2         1 PRO      -0.3944
     54 CB          1.7083   31.3809   16.7000 C.3         1 PRO      -0.0244
     55 N           1.8547   32.5377   13.5335 N.am        1 PRO      -0.2677
     56 CA          1.4576   33.4201   12.4663 C.3         1 PRO       0.1056
     57 C           1.5982   34.8895   12.6640 C.2         1 PRO       0.0621
     58 O           0.6924   35.5982   13.3788 O.co2       1 PRO      -0.5664
     59 CB          0.0472   33.0245   11.9345 C.3         1 PRO       0.0372
     60 CG         -1.0892   33.6324   12.6606 C.2         1 PRO       0.0555
     61 ND1        -2.0354   34.4111   12.1186 N.pl3       1 PRO      -0.2623
     62 CD2        -1.4099   33.5183   14.0107 C.2         1 PRO      -0.0276
     63 CE1        -2.8820   34.7930   13.0875 C.2         1 PRO       0.0875
     64 NE2        -2.5098   34.2473   14.2566 N.2         1 PRO      -0.3437
     65 OXT         2.7534   35.5175   12.3448 O.co2       1 PRO      -0.5664
     66 H1         -4.7244   28.0614   21.3802 H           1 PRO       0.2035
     67 H2         -4.1301   28.6107   22.8438 H           1 PRO       0.2035
     68 H3         -3.4819   26.5222   23.5379 H           1 PRO       0.1099
     69 H4         -4.6138   24.5539   22.7019 H           1 PRO       0.0347
     70 H5         -4.9952   25.3326   21.1450 H           1 PRO       0.0347
     71 H6         -6.4353   25.6143   23.7485 H           1 PRO       0.0320
     72 H7         -7.0210   25.9062   22.0944 H           1 PRO       0.0320
     73 H8         -6.6817   28.1912   22.4640 H           1 PRO       0.0814
     74 H9         -5.9014   27.8492   24.0281 H           1 PRO       0.0814
     75 H10        -1.8066   25.2066   22.8245 H           1 PRO       0.1886
     76 H11         0.0242   24.6136   21.8826 H           1 PRO       0.0824
     77 H12        -1.1182   24.9678   19.0924 H           1 PRO       0.0491
     78 H13        -1.9524   23.8882   20.2010 H           1 PRO       0.0491
     79 H14         1.0462   23.9167   18.0687 H           1 PRO       0.2386
     80 H15        -0.4302   21.8236   21.2621 H           1 PRO       0.0324
     81 H16         2.3344   21.7818   18.2478 H           1 PRO       0.1149
     82 H17         1.0806   26.4327   22.6943 H           1 PRO       0.1883
     83 H18         1.4714   28.7624   21.0996 H           1 PRO       0.0800
     84 H19         2.5600   27.8865   23.8102 H           1 PRO       0.0315
     85 H20         1.1706   28.9259   23.5084 H           1 PRO       0.0315
     86 H21         4.0913   29.6333   22.9301 H           1 PRO       0.0298
     87 H22         3.2720   31.9523   22.4430 H           1 PRO       0.0232
     88 H23         1.5950   31.3832   22.5671 H           1 PRO       0.0232
     89 H24         2.6540   30.7912   21.2704 H           1 PRO       0.0232
     90 H25         3.5819   29.6169   25.3447 H           1 PRO       0.0232
     91 H26         2.1913   30.6891   25.0895 H           1 PRO       0.0232
     92 H27         3.8361   31.2746   24.7840 H           1 PRO       0.0232
     93 H28         3.0638   28.8972   19.5989 H           1 PRO       0.1884
     94 H29         5.2517   26.9782   19.4754 H           1 PRO       0.0823
     95 H30         3.6181   27.6345   17.5089 H           1 PRO       0.0606
     96 H31         5.3504   27.4467   17.1980 H           1 PRO       0.0606
     97 H32         5.1644   29.3275   16.3871 H           1 PRO       0.2097
     98 H33         4.8061   30.0453   20.7718 H           1 PRO       0.1859
     99 H34         5.9729   31.7627   21.3310 H           1 PRO       0.0632
    100 H35         8.3979   31.5545   21.8319 H           1 PRO       0.0450
    101 H36         8.4515   29.9986   21.0341 H           1 PRO       0.0450
    102 H37         7.5161   28.0112   22.2001 H           1 PRO       0.0557
    103 H38         7.1673   31.8338   23.9622 H           1 PRO       0.0557
    104 H39         6.8526   26.9983   24.2875 H           1 PRO       0.0599
    105 H40         6.5263   30.8030   26.0496 H           1 PRO       0.0599
    106 H41         6.3405   28.3875   26.2130 H           1 PRO       0.0559
    107 H42         7.8880   31.4176   19.0110 H           1 PRO       0.0839
    108 H43         7.2598   32.8937   19.7638 H           1 PRO       0.0839
    109 H44         5.0313   31.9050   18.9732 H           1 PRO       0.2036
    110 H45         5.9460   30.9928   17.9529 H           1 PRO       0.2036
    111 H46         6.0159   33.9243   18.0001 H           1 PRO       0.1099
    112 H47         6.8547   31.8987   15.8458 H           1 PRO       0.0354
    113 H48         7.9179   32.8305   16.8725 H           1 PRO       0.0354
    114 H49         7.8973   33.8475   14.6909 H           1 PRO       0.0380
    115 H50         7.1965   34.9483   15.8687 H           1 PRO       0.0380
    116 H51         4.9164   32.7674   12.5018 H           1 PRO       0.0340
    117 H52         5.2045   31.8804   14.0099 H           1 PRO       0.0340
    118 H53         6.5812   32.4296   13.0189 H           1 PRO       0.0340
    119 H54         4.7357   31.2637   15.9849 H           1 PRO       0.1884
    120 H55         2.8789   30.8056   15.0263 H           1 PRO       0.0797
    121 H56         0.7825   31.0434   16.2335 H           1 PRO       0.0277
    122 H57         1.4829   32.2457   17.3210 H           1 PRO       0.0277
    123 H58         2.0785   30.5805   17.3424 H           1 PRO       0.0277
    124 H59         1.7660   31.5932   13.3289 H           1 PRO       0.1877
    125 H60         2.1523   33.1728   11.6607 H           1 PRO       0.0750
    126 H61        -0.0585   31.9370   11.9727 H           1 PRO       0.0484
    127 H62        -0.0155   33.3147   10.8821 H           1 PRO       0.0484
    128 H63        -2.0920   34.6699   11.1847 H           1 PRO       0.2386
    129 H64        -0.8968   32.9787   14.7070 H           1 PRO       0.0324
    130 H65        -3.7006   35.3875   12.9536 H           1 PRO       0.1149
@<TRIPOS>BOND
     1     1     2   1
     2     1     7   1
     3     2     3   1
     4     2     5   1
     5     3     4   2
     6     3     8  am
     7     5     6   1
     8     6     7   1
     9     8     9   1
    10     9    10   1
    11     9    12   1
    12    10    11   2
    13    10    18  am
    14    12    13   1
    15    13    14   1
    16    13    15   2
    17    14    16   1
    18    15    17   1
    19    16    17   2
    20    18    19   1
    21    19    20   1
    22    19    22   1
    23    20    21   2
    24    20    26  am
    25    22    23   1
    26    23    24   1
    27    23    25   1
    28    26    27   1
    29    27    28   1
    30    27    30   1
    31    28    29   2
    32    28    32  am
    33    30    31   1
    34    32    33   1
    35    33    34   1
    36    33    41   1
    37    34    35   1
    38    35    36  ar
    39    35    37  ar
    40    36    38  ar
    41    37    39  ar
    42    38    40  ar
    43    39    40  ar
    44    41    42   1
    45    42    43   1
    46    43    44   1
    47    43    48   1
    48    44    45   1
    49    45    46   1
    50    46    47   1
    51    48    49   2
    52    48    50  am
    53    50    51   1
    54    51    52   1
    55    51    54   1
    56    52    53   2
    57    52    55  am
    58    55    56   1
    59    56    57   1
    60    56    59   1
    61    57    58  ar
    62    57    65  ar
    63    59    60   1
    64    60    61   1
    65    60    62   2
    66    61    63   1
    67    62    64   1
    68    63    64   2
    69     1    66   1
    70     1    67   1
    71     2    68   1
    72     5    69   1
    73     5    70   1
    74     6    71   1
    75     6    72   1
    76     7    73   1
    77     7    74   1
    78     8    75   1
    79     9    76   1
    80    12    77   1
    81    12    78   1
    82    14    79   1
    83    15    80   1
    84    16    81   1
    85    18    82   1
    86    19    83   1
    87    22    84   1
    88    22    85   1
    89    23    86   1
    90    24    87   1
    91    24    88   1
    92    24    89   1
    93    25    90   1
    94    25    91   1
    95    25    92   1
    96    26    93   1
    97    27    94   1
    98    30    95   1
    99    30    96   1
   100    31    97   1
   101    32    98   1
   102    33    99   1
   103    34   100   1
   104    34   101   1
   105    36   102   1
   106    37   103   1
   107    38   104   1
   108    39   105   1
   109    40   106   1
   110    41   107   1
   111    41   108   1
   112    42   109   1
   113    42   110   1
   114    43   111   1
   115    44   112   1
   116    44   113   1
   117    45   114   1
   118    45   115   1
   119    47   116   1
   120    47   117   1
   121    47   118   1
   122    50   119   1
   123    51   120   1
   124    54   121   1
   125    54   122   1
   126    54   123   1
   127    55   124   1
   128    56   125   1
   129    59   126   1
   130    59   127   1
   131    61   128   1
   132    62   129   1
   133    63   130   1
@<TRIPOS>SUBSTRUCTURE
     1  PRO      2

