@<TRIPOS>MOLECULE
3uri_ligand_036
   130   133
SMALL
GAST_HUCK
****
This file was generated by PARSER (from files_GN.cpp)

@<TRIPOS>ATOM
      1 N          -9.5461   27.8232   19.7683 N.4         1 PRO       0.2461
      2 CA         -8.3828   27.4279   20.5857 C.3         1 PRO       0.0670
      3 C          -7.2208   27.1133   19.7625 C.2         1 PRO       0.2269
      4 O          -6.9195   27.9347   18.9045 O.2         1 PRO      -0.3907
      5 CB         -8.9601   26.2951   21.4643 C.3         1 PRO       0.0127
      6 CG        -10.4071   26.7316   21.7453 C.3         1 PRO      -0.0053
      7 CD        -10.7652   27.6755   20.5794 C.3         1 PRO      -0.0313
      8 N          -6.4703   26.0297   19.9675 N.am        1 PRO      -0.2592
      9 CA         -5.3402   25.5352   19.2198 C.3         1 PRO       0.1422
     10 C          -4.4865   26.5721   18.6410 C.2         1 PRO       0.2060
     11 O          -4.7395   26.9942   17.5184 O.2         1 PRO      -0.3942
     12 CB         -5.7104   24.3725   18.2324 C.3         1 PRO       0.0427
     13 CG         -7.0904   24.3910   17.7046 C.2         1 PRO       0.0561
     14 ND1        -8.1860   24.1368   18.4335 N.pl3       1 PRO      -0.2623
     15 CD2        -7.5346   24.6046   16.4040 C.2         1 PRO      -0.0276
     16 CE1        -9.2575   24.1938   17.6348 C.2         1 PRO       0.0875
     17 NE2        -8.8734   24.4735   16.3800 N.2         1 PRO      -0.3437
     18 N          -3.4723   27.0593   19.3509 N.am        1 PRO      -0.2636
     19 CA         -2.5438   28.0886   18.9816 C.3         1 PRO       0.1312
     20 C          -1.1775   27.5653   19.0213 C.2         1 PRO       0.2040
     21 O          -0.7398   27.0672   20.0504 O.2         1 PRO      -0.3944
     22 CB         -2.7429   29.3893   19.8376 C.3         1 PRO      -0.0101
     23 CG         -3.0870   29.3573   21.3681 C.3         1 PRO      -0.0425
     24 CD1        -4.5648   28.9891   21.6828 C.3         1 PRO      -0.0625
     25 CD2        -2.1101   28.5353   22.2475 C.3         1 PRO      -0.0625
     26 N          -0.3965   27.6647   17.9486 N.am        1 PRO      -0.2616
     27 CA          1.0175   27.4063   17.8800 C.3         1 PRO       0.1538
     28 C           1.6026   28.2985   16.8782 C.2         1 PRO       0.2045
     29 O           2.3209   27.8648   15.9838 O.2         1 PRO      -0.3944
     30 CB          1.3034   25.8921   17.6778 C.3         1 PRO       0.0843
     31 OG          0.9292   25.4374   16.3795 O.3         1 PRO      -0.3903
     32 N           1.4056   29.6052   17.0190 N.am        1 PRO      -0.2748
     33 C1          1.9969   30.6853   16.2708 C.3         1 PRO       0.0911
     34 C2          1.3638   32.0324   16.7400 C.3         1 PRO       0.0089
     35 C3         -0.0685   32.1548   16.3483 C.ar        1 PRO      -0.0406
     36 C4         -1.1058   31.9840   17.2945 C.ar        1 PRO      -0.0603
     37 C5         -0.4154   32.4390   15.0057 C.ar        1 PRO      -0.0603
     38 C6         -2.4567   32.0967   16.9059 C.ar        1 PRO      -0.0686
     39 C7         -1.7617   32.5585   14.6199 C.ar        1 PRO      -0.0686
     40 C8         -2.7833   32.3799   15.5690 C.ar        1 PRO      -0.0687
     41 C9          3.5552   30.6821   16.3807 C.3         1 PRO      -0.0062
     42 N2          4.0468   30.3182   17.7409 N.4         1 PRO       0.2479
     43 C10         5.3781   29.6391   17.8301 C.3         1 PRO       0.0676
     44 C11         6.5535   30.6624   17.6737 C.3         1 PRO       0.0169
     45 C12         7.0630   31.3220   18.9907 C.3         1 PRO       0.0007
     46 SD          7.6748   33.0134   18.7779 S.3         1 PRO      -0.1638
     47 C13         6.0859   33.8744   18.8468 C.3         1 PRO      -0.0181
     48 C           5.4849   28.8145   19.0313 C.2         1 PRO       0.2268
     49 O           4.5797   28.8010   19.8565 O.2         1 PRO      -0.3907
     50 N           6.5903   28.1067   19.2386 N.am        1 PRO      -0.2613
     51 CA          6.9069   27.3596   20.4232 C.3         1 PRO       0.1283
     52 C           6.9802   28.2457   21.5859 C.2         1 PRO       0.2032
     53 O           7.7800   29.1734   21.5780 O.2         1 PRO      -0.3944
     54 CB          8.2307   26.5796   20.2172 C.3         1 PRO      -0.0244
     55 N           6.1474   28.0467   22.5996 N.am        1 PRO      -0.2677
     56 CA          5.9319   28.7583   23.8320 C.3         1 PRO       0.1056
     57 C           4.4740   28.8529   24.0856 C.2         1 PRO       0.0621
     58 O           4.0248   29.1557   25.3238 O.co2       1 PRO      -0.5664
     59 CB          6.6400   30.1257   24.1110 C.3         1 PRO       0.0372
     60 CG          6.1906   31.3092   23.3429 C.2         1 PRO       0.0555
     61 ND1         4.9251   31.7106   23.1499 N.pl3       1 PRO      -0.2623
     62 CD2         6.9927   32.3417   22.8594 C.2         1 PRO      -0.0276
     63 CE1         4.9398   32.9209   22.5795 C.2         1 PRO       0.0875
     64 NE2         6.2070   33.3271   22.4003 N.2         1 PRO      -0.3437
     65 OXT         3.5668   28.8199   23.0807 O.co2       1 PRO      -0.5664
     66 H1         -9.6176   27.2006   18.9618 H           1 PRO       0.2035
     67 H2         -9.4486   28.7863   19.4439 H           1 PRO       0.2035
     68 H3         -8.1124   28.2718   21.2307 H           1 PRO       0.1099
     69 H4         -8.3870   26.1658   22.3852 H           1 PRO       0.0347
     70 H5         -8.9780   25.3512   20.9141 H           1 PRO       0.0347
     71 H6        -10.4624   27.2630   22.6994 H           1 PRO       0.0320
     72 H7        -11.0762   25.8677   21.7825 H           1 PRO       0.0320
     73 H8        -11.5638   27.2587   19.9622 H           1 PRO       0.0814
     74 H9        -11.0823   28.6498   20.9568 H           1 PRO       0.0814
     75 H10        -6.7477   25.4395   20.6846 H           1 PRO       0.1886
     76 H11        -4.7270   25.0520   19.9900 H           1 PRO       0.0824
     77 H12        -5.5896   23.4139   18.7454 H           1 PRO       0.0491
     78 H13        -5.0095   24.3509   17.3939 H           1 PRO       0.0491
     79 H14        -8.1974   23.9390   19.3808 H           1 PRO       0.2386
     80 H15        -6.9445   24.8176   15.5968 H           1 PRO       0.0324
     81 H16       -10.2231   24.0441   17.9335 H           1 PRO       0.1149
     82 H17        -3.3512   26.6830   20.2370 H           1 PRO       0.1883
     83 H18        -2.7413   28.3975   17.9463 H           1 PRO       0.0800
     84 H19        -3.5405   29.9691   19.3618 H           1 PRO       0.0315
     85 H20        -1.8458   30.0029   19.7199 H           1 PRO       0.0315
     86 H21        -2.9756   30.3939   21.7064 H           1 PRO       0.0298
     87 H22        -4.7800   29.1851   22.7358 H           1 PRO       0.0232
     88 H23        -4.7646   27.9359   21.4961 H           1 PRO       0.0232
     89 H24        -5.2470   29.5908   21.0795 H           1 PRO       0.0232
     90 H25        -1.0742   28.7957   22.0156 H           1 PRO       0.0232
     91 H26        -2.2555   27.4642   22.0962 H           1 PRO       0.0232
     92 H27        -2.2846   28.7503   23.3046 H           1 PRO       0.0232
     93 H28        -0.7977   28.0640   17.1608 H           1 PRO       0.1884
     94 H29         1.4779   27.6921   18.8326 H           1 PRO       0.0823
     95 H30         0.7625   25.3048   18.4217 H           1 PRO       0.0606
     96 H31         2.3695   25.6965   17.8127 H           1 PRO       0.0606
     97 H32        -0.0371   25.5836   16.3249 H           1 PRO       0.2097
     98 H33         0.8151   29.8701   17.7433 H           1 PRO       0.1859
     99 H34         1.7490   30.5441   15.2125 H           1 PRO       0.0632
    100 H35         1.9074   32.8752   16.3049 H           1 PRO       0.0450
    101 H36         1.4796   32.1162   17.8232 H           1 PRO       0.0450
    102 H37        -0.8859   31.7836   18.2698 H           1 PRO       0.0557
    103 H38         0.3130   32.5746   14.2996 H           1 PRO       0.0557
    104 H39        -3.1977   31.9690   17.5973 H           1 PRO       0.0599
    105 H40        -2.0010   32.7710   13.6473 H           1 PRO       0.0599
    106 H41        -3.7653   32.4662   15.2895 H           1 PRO       0.0559
    107 H42         3.9598   31.6581   16.1051 H           1 PRO       0.0839
    108 H43         3.9310   29.9671   15.6432 H           1 PRO       0.0839
    109 H44         3.3690   29.6686   18.1388 H           1 PRO       0.2036
    110 H45         4.0482   31.1536   18.3322 H           1 PRO       0.2036
    111 H46         5.4503   28.9301   16.9996 H           1 PRO       0.1099
    112 H47         6.2505   31.4351   16.9629 H           1 PRO       0.0354
    113 H48         7.4053   30.1483   17.2121 H           1 PRO       0.0354
    114 H49         7.9005   30.7300   19.3689 H           1 PRO       0.0380
    115 H50         6.2916   31.3135   19.7654 H           1 PRO       0.0380
    116 H51         6.2781   34.9464   18.8202 H           1 PRO       0.0340
    117 H52         5.5644   33.6369   19.7744 H           1 PRO       0.0340
    118 H53         5.4581   33.6064   17.9946 H           1 PRO       0.0340
    119 H54         7.2549   28.1146   18.5302 H           1 PRO       0.1884
    120 H55         6.1219   26.6071   20.5626 H           1 PRO       0.0797
    121 H56         8.4634   25.9864   21.1029 H           1 PRO       0.0277
    122 H57         9.0617   27.2597   20.0190 H           1 PRO       0.0277
    123 H58         8.1323   25.9008   19.3701 H           1 PRO       0.0277
    124 H59         5.5965   27.2525   22.5132 H           1 PRO       0.1877
    125 H60         6.3104   28.0705   24.5935 H           1 PRO       0.0750
    126 H61         7.7142   29.9968   23.9789 H           1 PRO       0.0484
    127 H62         6.4931   30.3810   25.1655 H           1 PRO       0.0484
    128 H63         4.1259   31.2301   23.4145 H           1 PRO       0.2386
    129 H64         8.0135   32.3793   22.8892 H           1 PRO       0.0324
    130 H65         4.1086   33.4659   22.3585 H           1 PRO       0.1149
@<TRIPOS>BOND
     1     1     2   1
     2     1     7   1
     3     2     3   1
     4     2     5   1
     5     3     4   2
     6     3     8  am
     7     5     6   1
     8     6     7   1
     9     8     9   1
    10     9    10   1
    11     9    12   1
    12    10    11   2
    13    10    18  am
    14    12    13   1
    15    13    14   1
    16    13    15   2
    17    14    16   1
    18    15    17   1
    19    16    17   2
    20    18    19   1
    21    19    20   1
    22    19    22   1
    23    20    21   2
    24    20    26  am
    25    22    23   1
    26    23    24   1
    27    23    25   1
    28    26    27   1
    29    27    28   1
    30    27    30   1
    31    28    29   2
    32    28    32  am
    33    30    31   1
    34    32    33   1
    35    33    34   1
    36    33    41   1
    37    34    35   1
    38    35    36  ar
    39    35    37  ar
    40    36    38  ar
    41    37    39  ar
    42    38    40  ar
    43    39    40  ar
    44    41    42   1
    45    42    43   1
    46    43    44   1
    47    43    48   1
    48    44    45   1
    49    45    46   1
    50    46    47   1
    51    48    49   2
    52    48    50  am
    53    50    51   1
    54    51    52   1
    55    51    54   1
    56    52    53   2
    57    52    55  am
    58    55    56   1
    59    56    57   1
    60    56    59   1
    61    57    58  ar
    62    57    65  ar
    63    59    60   1
    64    60    61   1
    65    60    62   2
    66    61    63   1
    67    62    64   1
    68    63    64   2
    69     1    66   1
    70     1    67   1
    71     2    68   1
    72     5    69   1
    73     5    70   1
    74     6    71   1
    75     6    72   1
    76     7    73   1
    77     7    74   1
    78     8    75   1
    79     9    76   1
    80    12    77   1
    81    12    78   1
    82    14    79   1
    83    15    80   1
    84    16    81   1
    85    18    82   1
    86    19    83   1
    87    22    84   1
    88    22    85   1
    89    23    86   1
    90    24    87   1
    91    24    88   1
    92    24    89   1
    93    25    90   1
    94    25    91   1
    95    25    92   1
    96    26    93   1
    97    27    94   1
    98    30    95   1
    99    30    96   1
   100    31    97   1
   101    32    98   1
   102    33    99   1
   103    34   100   1
   104    34   101   1
   105    36   102   1
   106    37   103   1
   107    38   104   1
   108    39   105   1
   109    40   106   1
   110    41   107   1
   111    41   108   1
   112    42   109   1
   113    42   110   1
   114    43   111   1
   115    44   112   1
   116    44   113   1
   117    45   114   1
   118    45   115   1
   119    47   116   1
   120    47   117   1
   121    47   118   1
   122    50   119   1
   123    51   120   1
   124    54   121   1
   125    54   122   1
   126    54   123   1
   127    55   124   1
   128    56   125   1
   129    59   126   1
   130    59   127   1
   131    61   128   1
   132    62   129   1
   133    63   130   1
@<TRIPOS>SUBSTRUCTURE
     1  PRO      2

