@<TRIPOS>MOLECULE
3uri_ligand_011
   130   133
SMALL
GAST_HUCK
****
This file was generated by PARSER (from files_GN.cpp)

@<TRIPOS>ATOM
      1 N           4.3684   27.2980   18.6204 N.4         1 PRO       0.2461
      2 CA          2.9552   27.3725   18.2077 C.3         1 PRO       0.0670
      3 C           2.7307   28.4128   17.2124 C.2         1 PRO       0.2269
      4 O           2.6581   28.0723   16.0368 O.2         1 PRO      -0.3907
      5 CB          2.1637   27.5072   19.5273 C.3         1 PRO       0.0127
      6 CG          2.9787   26.6404   20.4993 C.3         1 PRO      -0.0053
      7 CD          4.4312   26.7825   19.9996 C.3         1 PRO      -0.0313
      8 N           2.6302   29.6945   17.5596 N.am        1 PRO      -0.2592
      9 CA          2.4009   30.8161   16.6821 C.3         1 PRO       0.1422
     10 C           3.2446   31.9319   17.1109 C.2         1 PRO       0.2060
     11 O           2.7656   33.0539   17.2625 O.2         1 PRO      -0.3942
     12 CB          0.8726   31.1453   16.6382 C.3         1 PRO       0.0427
     13 CG          0.0573   30.2109   15.8323 C.2         1 PRO       0.0561
     14 ND1         0.4023   29.6695   14.6575 N.pl3       1 PRO      -0.2623
     15 CD2        -1.2700   29.8415   16.0542 C.2         1 PRO      -0.0276
     16 CE1        -0.6423   28.9847   14.1785 C.2         1 PRO       0.0875
     17 NE2        -1.6838   29.0883   15.0218 N.2         1 PRO      -0.3437
     18 N           4.5518   31.7469   17.2370 N.am        1 PRO      -0.2636
     19 CA          5.5426   32.7613   17.5150 C.3         1 PRO       0.1312
     20 C           5.9067   33.5203   16.3168 C.2         1 PRO       0.2040
     21 O           6.7648   34.3894   16.4171 O.2         1 PRO      -0.3944
     22 CB          6.7789   32.0742   18.1778 C.3         1 PRO      -0.0101
     23 CG          6.5623   31.5947   19.6533 C.3         1 PRO      -0.0425
     24 CD1         7.7426   30.7094   20.1339 C.3         1 PRO      -0.0625
     25 CD2         6.3440   32.7818   20.6405 C.3         1 PRO      -0.0625
     26 N           5.2607   33.3477   15.1667 N.am        1 PRO      -0.2616
     27 CA          5.4551   34.0300   13.9134 C.3         1 PRO       0.1538
     28 C           4.3846   35.0043   13.6842 C.2         1 PRO       0.2045
     29 O           3.7823   35.4472   14.6544 O.2         1 PRO      -0.3944
     30 CB          5.5891   32.9050   12.8457 C.3         1 PRO       0.0843
     31 OG          4.4917   31.9903   12.8708 O.3         1 PRO      -0.3903
     32 N           4.1062   35.4676   12.4674 N.am        1 PRO      -0.2748
     33 C1          3.0866   36.4235   12.0984 C.3         1 PRO       0.0911
     34 C2          1.6438   36.0379   12.5546 C.3         1 PRO       0.0089
     35 C3          1.3549   34.5959   12.3485 C.ar        1 PRO      -0.0406
     36 C4          0.8802   34.1149   11.1026 C.ar        1 PRO      -0.0603
     37 C5          1.6145   33.6653   13.3817 C.ar        1 PRO      -0.0603
     38 C6          0.6613   32.7362   10.9009 C.ar        1 PRO      -0.0686
     39 C7          1.4457   32.2887   13.1583 C.ar        1 PRO      -0.0686
     40 C8          0.9639   31.8190   11.9234 C.ar        1 PRO      -0.0687
     41 C9          3.4566   37.8692   12.5282 C.3         1 PRO      -0.0062
     42 N2          4.7233   38.3245   11.8972 N.4         1 PRO       0.2479
     43 C10         4.8280   39.7334   11.4106 C.3         1 PRO       0.0676
     44 C11         4.1702   39.8873    9.9919 C.3         1 PRO       0.0169
     45 C12         2.6882   39.4773    9.7352 C.3         1 PRO       0.0007
     46 SD          1.4821   40.6032   10.4863 S.3         1 PRO      -0.1638
     47 C13         0.3230   40.8131    9.1030 C.3         1 PRO      -0.0181
     48 C           4.5324   40.7271   12.4498 C.2         1 PRO       0.2268
     49 O           5.1512   40.6349   13.5057 O.2         1 PRO      -0.3907
     50 N           3.6562   41.7116   12.2757 N.am        1 PRO      -0.2613
     51 CA          3.1937   42.6579   13.2595 C.3         1 PRO       0.1283
     52 C           1.7674   42.4166   13.4579 C.2         1 PRO       0.2032
     53 O           0.9559   42.9626   12.7220 O.2         1 PRO      -0.3944
     54 CB          3.4997   44.1017   12.7776 C.3         1 PRO      -0.0244
     55 N           1.3750   41.5191   14.3586 N.am        1 PRO      -0.2677
     56 CA          0.0431   41.0294   14.6072 C.3         1 PRO       0.1056
     57 C          -0.2875   39.9811   13.6140 C.2         1 PRO       0.0621
     58 O           0.1818   38.7249   13.7887 O.co2       1 PRO      -0.5664
     59 CB         -1.0507   42.1323   14.7611 C.3         1 PRO       0.0372
     60 CG         -0.7445   43.0887   15.8387 C.2         1 PRO       0.0555
     61 ND1         0.0852   44.1384   15.7475 N.pl3       1 PRO      -0.2623
     62 CD2        -1.2016   43.0610   17.1520 C.2         1 PRO      -0.0276
     63 CE1         0.1410   44.7357   16.9467 C.2         1 PRO       0.0875
     64 NE2        -0.6434   44.0830   17.8206 N.2         1 PRO      -0.3437
     65 OXT        -1.0342   40.2272   12.5127 O.co2       1 PRO      -0.5664
     66 H1          4.7975   28.2282   18.5870 H           1 PRO       0.2035
     67 H2          4.8657   26.6612   17.9896 H           1 PRO       0.2035
     68 H3          2.7067   26.3939   17.7766 H           1 PRO       0.1099
     69 H4          1.1350   27.1476   19.4241 H           1 PRO       0.0347
     70 H5          2.1490   28.5383   19.8941 H           1 PRO       0.0347
     71 H6          2.6551   25.5972   20.4269 H           1 PRO       0.0320
     72 H7          2.8687   26.9785   21.5339 H           1 PRO       0.0320
     73 H8          4.9850   27.4926   20.6178 H           1 PRO       0.0814
     74 H9          4.9466   25.8195   20.0147 H           1 PRO       0.0814
     75 H10         2.6906   29.8989   18.5070 H           1 PRO       0.1886
     76 H11         2.7192   30.5784   15.6589 H           1 PRO       0.0824
     77 H12         0.7358   32.1366   16.1948 H           1 PRO       0.0491
     78 H13         0.4814   31.1813   17.6595 H           1 PRO       0.0491
     79 H14         1.2709   29.7458   14.2254 H           1 PRO       0.2386
     80 H15        -1.8449   30.1161   16.8526 H           1 PRO       0.0324
     81 H16        -0.6523   28.4987   13.2829 H           1 PRO       0.1149
     82 H17         4.8842   30.8533   17.0394 H           1 PRO       0.1883
     83 H18         5.1312   33.4828   18.2297 H           1 PRO       0.0800
     84 H19         7.6328   32.7597   18.1660 H           1 PRO       0.0315
     85 H20         7.0563   31.2170   17.5528 H           1 PRO       0.0315
     86 H21         5.6636   30.9705   19.6850 H           1 PRO       0.0298
     87 H22         7.5621   30.3645   21.1529 H           1 PRO       0.0232
     88 H23         8.6795   31.2700   20.1109 H           1 PRO       0.0232
     89 H24         7.8408   29.8299   19.4940 H           1 PRO       0.0232
     90 H25         5.4319   33.3326   20.3918 H           1 PRO       0.0232
     91 H26         7.1939   33.4708   20.6043 H           1 PRO       0.0232
     92 H27         6.2424   32.4075   21.6639 H           1 PRO       0.0232
     93 H28         4.5383   32.7024   15.1762 H           1 PRO       0.1884
     94 H29         6.3937   34.5936   13.9220 H           1 PRO       0.0823
     95 H30         6.4989   32.3341   13.0505 H           1 PRO       0.0606
     96 H31         5.6822   33.3275   11.8451 H           1 PRO       0.0606
     97 H32         3.8724   32.2878   12.1741 H           1 PRO       0.2097
     98 H33         4.6278   35.1029   11.7344 H           1 PRO       0.1859
     99 H34         3.0666   36.4258   11.0048 H           1 PRO       0.0632
    100 H35         0.9060   36.6232   12.0014 H           1 PRO       0.0450
    101 H36         1.5012   36.3015   13.6041 H           1 PRO       0.0450
    102 H37         0.6980   34.7650   10.3356 H           1 PRO       0.0557
    103 H38         1.9653   33.9728   14.2959 H           1 PRO       0.0557
    104 H39         0.2988   32.3953   10.0078 H           1 PRO       0.0599
    105 H40         1.6909   31.6333   13.8967 H           1 PRO       0.0599
    106 H41         0.8559   30.8154   11.7646 H           1 PRO       0.0559
    107 H42         3.5689   37.9217   13.6157 H           1 PRO       0.0839
    108 H43         2.6355   38.5301   12.2423 H           1 PRO       0.0839
    109 H44         4.9297   37.7148   11.0998 H           1 PRO       0.2036
    110 H45         5.4650   38.1844   12.5898 H           1 PRO       0.2036
    111 H46         5.9003   39.8752   11.2240 H           1 PRO       0.1099
    112 H47         4.7652   39.2524    9.3237 H           1 PRO       0.0354
    113 H48         4.3131   40.9157    9.6417 H           1 PRO       0.0354
    114 H49         2.5022   38.4680   10.1158 H           1 PRO       0.0380
    115 H50         2.5294   39.4618    8.6503 H           1 PRO       0.0380
    116 H51        -0.4882   41.4784    9.4188 H           1 PRO       0.0340
    117 H52        -0.1055   39.8513    8.8071 H           1 PRO       0.0340
    118 H53         0.8396   41.2672    8.2507 H           1 PRO       0.0340
    119 H54         3.2437   41.7758   11.4009 H           1 PRO       0.1884
    120 H55         3.7228   42.5329   14.2147 H           1 PRO       0.0797
    121 H56         3.1102   44.8332   13.4942 H           1 PRO       0.0277
    122 H57         3.0466   44.2912   11.7987 H           1 PRO       0.0277
    123 H58         4.5836   44.2498   12.6907 H           1 PRO       0.0277
    124 H59         2.0783   41.0964   14.8754 H           1 PRO       0.1877
    125 H60         0.0953   40.5132   15.5724 H           1 PRO       0.0750
    126 H61        -2.0146   41.6622   14.9797 H           1 PRO       0.0484
    127 H62        -1.1640   42.6839   13.8268 H           1 PRO       0.0484
    128 H63         0.5588   44.4196   14.9491 H           1 PRO       0.2386
    129 H64        -1.8543   42.3825   17.5466 H           1 PRO       0.0324
    130 H65         0.7052   45.5570   17.1670 H           1 PRO       0.1149
@<TRIPOS>BOND
     1     1     2   1
     2     1     7   1
     3     2     3   1
     4     2     5   1
     5     3     4   2
     6     3     8  am
     7     5     6   1
     8     6     7   1
     9     8     9   1
    10     9    10   1
    11     9    12   1
    12    10    11   2
    13    10    18  am
    14    12    13   1
    15    13    14   1
    16    13    15   2
    17    14    16   1
    18    15    17   1
    19    16    17   2
    20    18    19   1
    21    19    20   1
    22    19    22   1
    23    20    21   2
    24    20    26  am
    25    22    23   1
    26    23    24   1
    27    23    25   1
    28    26    27   1
    29    27    28   1
    30    27    30   1
    31    28    29   2
    32    28    32  am
    33    30    31   1
    34    32    33   1
    35    33    34   1
    36    33    41   1
    37    34    35   1
    38    35    36  ar
    39    35    37  ar
    40    36    38  ar
    41    37    39  ar
    42    38    40  ar
    43    39    40  ar
    44    41    42   1
    45    42    43   1
    46    43    44   1
    47    43    48   1
    48    44    45   1
    49    45    46   1
    50    46    47   1
    51    48    49   2
    52    48    50  am
    53    50    51   1
    54    51    52   1
    55    51    54   1
    56    52    53   2
    57    52    55  am
    58    55    56   1
    59    56    57   1
    60    56    59   1
    61    57    58  ar
    62    57    65  ar
    63    59    60   1
    64    60    61   1
    65    60    62   2
    66    61    63   1
    67    62    64   1
    68    63    64   2
    69     1    66   1
    70     1    67   1
    71     2    68   1
    72     5    69   1
    73     5    70   1
    74     6    71   1
    75     6    72   1
    76     7    73   1
    77     7    74   1
    78     8    75   1
    79     9    76   1
    80    12    77   1
    81    12    78   1
    82    14    79   1
    83    15    80   1
    84    16    81   1
    85    18    82   1
    86    19    83   1
    87    22    84   1
    88    22    85   1
    89    23    86   1
    90    24    87   1
    91    24    88   1
    92    24    89   1
    93    25    90   1
    94    25    91   1
    95    25    92   1
    96    26    93   1
    97    27    94   1
    98    30    95   1
    99    30    96   1
   100    31    97   1
   101    32    98   1
   102    33    99   1
   103    34   100   1
   104    34   101   1
   105    36   102   1
   106    37   103   1
   107    38   104   1
   108    39   105   1
   109    40   106   1
   110    41   107   1
   111    41   108   1
   112    42   109   1
   113    42   110   1
   114    43   111   1
   115    44   112   1
   116    44   113   1
   117    45   114   1
   118    45   115   1
   119    47   116   1
   120    47   117   1
   121    47   118   1
   122    50   119   1
   123    51   120   1
   124    54   121   1
   125    54   122   1
   126    54   123   1
   127    55   124   1
   128    56   125   1
   129    59   126   1
   130    59   127   1
   131    61   128   1
   132    62   129   1
   133    63   130   1
@<TRIPOS>SUBSTRUCTURE
     1  PRO      2

