@<TRIPOS>MOLECULE
3utu_ligand_076
    82    85
SMALL
GAST_HUCK
****
This file was generated by PARSER (from files_GN.cpp)

@<TRIPOS>ATOM
      1 S8         16.2083  -18.3215   24.5085 S.o2        1 MOL       0.0657
      2 CL         13.2242  -22.8122   24.9855 Cl          1 MOL      -0.0788
      3 C35        16.0979  -20.0427   24.7770 C.ar        1 MOL       0.0977
      4 C10        16.0510  -25.0263   24.3604 C.3         1 MOL       0.0596
      5 O9         15.8633  -24.1773   25.5054 O.3         1 MOL      -0.3203
      6 C5         15.9297  -22.8352   25.2219 C.ar        1 MOL       0.1052
      7 O1         14.7766  -17.7295   24.1436 O.2         1 MOL      -0.1516
      8 O10        16.7376  -17.6748   25.8649 O.2         1 MOL      -0.1516
      9 C7         17.2649  -20.7955   25.0293 C.ar        1 MOL      -0.0438
     10 C3         14.8471  -20.6943   24.7579 C.ar        1 MOL      -0.0300
     11 C6         17.1770  -22.1831   25.2540 C.ar        1 MOL      -0.0306
     12 C4         14.7544  -22.0811   24.9838 C.ar        1 MOL       0.0696
     13 C13        17.5389  -16.4851   21.4346 C.2         1 MOL       0.2048
     14 N11        17.2954  -18.0137   23.2514 N.am        1 MOL      -0.2244
     15 O14        18.5164  -16.1097   20.7938 O.2         1 MOL      -0.3945
     16 C15        20.1452  -12.9194   23.3615 C.3         1 MOL       0.0687
     17 C31        20.0479  -12.5322   21.9303 C.ar        1 MOL      -0.0116
     18 C32        21.1499  -12.6835   21.0563 C.ar        1 MOL      -0.0467
     19 C33        21.0211  -12.4097   19.6829 C.ar        1 MOL      -0.0334
     20 C44        19.7920  -11.9584   19.1587 C.ar        1 MOL       0.0883
     21 C8         18.7068  -11.7468   20.0340 C.ar        1 MOL      -0.0334
     22 C9         18.8289  -12.0454   21.4055 C.ar        1 MOL      -0.0467
     23 C40        19.6457  -11.7804   17.8805 C.1         1 MOL       0.0934
     24 N63        19.5198  -11.6289   16.7509 N.1         1 MOL      -0.3338
     25 C45        17.7272  -16.6986   22.8889 C.3         1 MOL       0.1430
     26 C12        19.1791  -16.5666   23.4658 C.3         1 MOL       0.0742
     27 C46        19.9043  -15.3495   23.1311 C.2         1 MOL       0.1821
     28 O22        20.8895  -15.4407   22.4044 O.2         1 MOL      -0.3967
     29 N14        19.5004  -14.1748   23.6019 N.am        1 MOL      -0.2739
     30 N15        16.3740  -16.6080   20.7561 N.am        1 MOL      -0.2500
     31 C16        16.2123  -16.2259   19.3663 C.3         1 MOL       0.1338
     32 C17        16.0915  -14.7710   19.2099 C.2         1 MOL       0.2037
     33 O18        17.0332  -14.1352   18.7447 O.2         1 MOL      -0.3944
     34 C34        14.9746  -17.0094   18.8736 C.3         1 MOL      -0.0104
     35 C1         14.1447  -17.2678   20.1340 C.3         1 MOL      -0.0281
     36 C2         15.1751  -17.2052   21.2838 C.3         1 MOL       0.0369
     37 N19        14.9856  -14.1515   19.5997 N.am        1 MOL      -0.2737
     38 C20        14.7016  -12.7468   19.5771 C.3         1 MOL       0.0645
     39 C21        13.6863  -12.3515   20.5954 C.ar        1 MOL      -0.0210
     40 C26        12.8548  -11.2287   20.3851 C.ar        1 MOL      -0.0584
     41 C25        11.9384  -10.8096   21.3699 C.ar        1 MOL      -0.0633
     42 C24        11.8079  -11.5071   22.5990 C.ar        1 MOL       0.0188
     43 C27        10.8973  -11.1076   23.5898 C.cat       1 MOL       0.2318
     44 N29        10.5491   -9.8874   23.7610 N.pl3       1 MOL      -0.2729
     45 N28        10.3573  -11.9451   24.3946 N.pl3       1 MOL      -0.2729
     46 C23        12.6474  -12.6319   22.8015 C.ar        1 MOL      -0.0633
     47 C22        13.5856  -13.0273   21.8334 C.ar        1 MOL      -0.0584
     48 H1         15.9917  -26.0594   24.6986 H           1 MOL       0.0578
     49 H2         17.0315  -24.8702   23.9070 H           1 MOL       0.0578
     50 H3         15.2715  -24.8650   23.6131 H           1 MOL       0.0578
     51 H4         18.1815  -20.3435   25.0568 H           1 MOL       0.0610
     52 H5         13.9921  -20.1599   24.5887 H           1 MOL       0.0614
     53 H6         18.0301  -22.7187   25.4497 H           1 MOL       0.0542
     54 H7         17.7462  -18.7744   22.8485 H           1 MOL       0.1706
     55 H8         19.6519  -12.1637   23.9773 H           1 MOL       0.0704
     56 H9         21.1859  -12.9749   23.6953 H           1 MOL       0.0704
     57 H10        22.0487  -13.0205   21.4122 H           1 MOL       0.0584
     58 H11        21.8238  -12.5596   19.0695 H           1 MOL       0.0701
     59 H12        17.8196  -11.3826   19.6826 H           1 MOL       0.0701
     60 H13        18.0155  -11.9168   22.0165 H           1 MOL       0.0584
     61 H14        17.0883  -15.9541   23.3877 H           1 MOL       0.0779
     62 H15        19.7611  -17.4416   23.1488 H           1 MOL       0.0547
     63 H16        19.1284  -16.6027   24.5535 H           1 MOL       0.0547
     64 H17        18.7239  -14.1768   24.1831 H           1 MOL       0.1881
     65 H18        17.0654  -16.5880   18.7846 H           1 MOL       0.0802
     66 H19        15.2847  -17.9664   18.4474 H           1 MOL       0.0313
     67 H20        14.3978  -16.4715   18.1214 H           1 MOL       0.0313
     68 H21        13.6473  -18.2396   20.0947 H           1 MOL       0.0287
     69 H22        13.3804  -16.5021   20.2721 H           1 MOL       0.0287
     70 H23        14.7840  -16.6211   22.1230 H           1 MOL       0.0524
     71 H24        15.3644  -18.2265   21.6190 H           1 MOL       0.0524
     72 H25        14.2592  -14.7137   19.9008 H           1 MOL       0.1878
     73 H26        14.3617  -12.4924   18.5703 H           1 MOL       0.0683
     74 H27        15.6072  -12.1784   19.7892 H           1 MOL       0.0683
     75 H28        12.9135  -10.6980   19.5135 H           1 MOL       0.0557
     76 H29        11.3530   -9.9933   21.1729 H           1 MOL       0.0599
     77 H30         9.9435   -9.6662   24.4401 H           1 MOL       0.3180
     78 H31        10.9055   -9.2100   23.2204 H           1 MOL       0.3180
     79 H32        10.5492  -12.8596   24.3241 H           1 MOL       0.3180
     80 H33         9.7459  -11.6568   25.0376 H           1 MOL       0.3180
     81 H34        12.6040  -13.1672   23.6694 H           1 MOL       0.0599
     82 H35        14.1946  -13.8178   22.0496 H           1 MOL       0.0557
@<TRIPOS>BOND
     1     1     3   1
     2     1     7   2
     3     1     8   2
     4    14     1  am
     5    12     2   1
     6     3     9  ar
     7     3    10  ar
     8     5     4   1
     9     6     5   1
    10    11     6  ar
    11    12     6  ar
    12     9    11  ar
    13    10    12  ar
    14    13    15   2
    15    25    13   1
    16    13    30  am
    17    25    14   1
    18    16    17   1
    19    29    16   1
    20    17    18  ar
    21    17    22  ar
    22    18    19  ar
    23    19    20  ar
    24    21    20  ar
    25    20    23   1
    26    22    21  ar
    27    23    24   3
    28    26    25   1
    29    27    26   1
    30    27    28   2
    31    27    29  am
    32    30    31   1
    33    30    36   1
    34    31    32   1
    35    31    34   1
    36    32    33   2
    37    32    37  am
    38    34    35   1
    39    35    36   1
    40    37    38   1
    41    38    39   1
    42    39    40  ar
    43    39    47  ar
    44    40    41  ar
    45    41    42  ar
    46    42    43   1
    47    42    46  ar
    48    43    44  ar
    49    43    45  ar
    50    46    47  ar
    51     4    48   1
    52     4    49   1
    53     4    50   1
    54     9    51   1
    55    10    52   1
    56    11    53   1
    57    14    54   1
    58    16    55   1
    59    16    56   1
    60    18    57   1
    61    19    58   1
    62    21    59   1
    63    22    60   1
    64    25    61   1
    65    26    62   1
    66    26    63   1
    67    29    64   1
    68    31    65   1
    69    34    66   1
    70    34    67   1
    71    35    68   1
    72    35    69   1
    73    36    70   1
    74    36    71   1
    75    37    72   1
    76    38    73   1
    77    38    74   1
    78    40    75   1
    79    41    76   1
    80    44    77   1
    81    44    78   1
    82    45    79   1
    83    45    80   1
    84    46    81   1
    85    47    82   1
@<TRIPOS>SUBSTRUCTURE
     1  MOL      2

