@<TRIPOS>MOLECULE
3utu_ligand_071
    82    85
SMALL
GAST_HUCK
****
This file was generated by PARSER (from files_GN.cpp)

@<TRIPOS>ATOM
      1 S8         17.8804  -16.6648   21.8232 S.o2        1 MOL       0.0657
      2 CL         19.4091  -20.9037   18.8514 Cl          1 MOL      -0.0788
      3 C35        19.1514  -17.5980   21.0815 C.ar        1 MOL       0.0977
      4 C10        22.8513  -20.7993   20.0634 C.3         1 MOL       0.0596
      5 O9         22.1921  -19.8320   19.2260 O.3         1 MOL      -0.3203
      6 C5         21.1948  -19.1364   19.8591 C.ar        1 MOL       0.1052
      7 O1         17.1984  -15.8174   20.6631 O.2         1 MOL      -0.1516
      8 O10        16.8095  -17.6631   22.4482 O.2         1 MOL      -0.1516
      9 C7         20.5013  -17.1974   21.1757 C.ar        1 MOL      -0.0438
     10 C3         18.8270  -18.7649   20.3548 C.ar        1 MOL      -0.0300
     11 C6         21.5098  -17.9596   20.5620 C.ar        1 MOL      -0.0306
     12 C4         19.8403  -19.5318   19.7415 C.ar        1 MOL       0.0696
     13 C13        17.7063  -13.3152   22.6206 C.2         1 MOL       0.2048
     14 N11        18.4386  -15.6164   23.0205 N.am        1 MOL      -0.2244
     15 O14        16.7558  -12.5607   22.7953 O.2         1 MOL      -0.3945
     16 C15        18.4470  -16.9865   27.4558 C.3         1 MOL       0.0687
     17 C31        19.1071  -18.2513   27.0377 C.ar        1 MOL      -0.0116
     18 C32        20.5183  -18.3352   26.9993 C.ar        1 MOL      -0.0467
     19 C33        21.1627  -19.5430   26.6692 C.ar        1 MOL      -0.0334
     20 C44        20.4023  -20.6941   26.3669 C.ar        1 MOL       0.0883
     21 C8         18.9928  -20.6155   26.3848 C.ar        1 MOL      -0.0334
     22 C9         18.3552  -19.4060   26.7173 C.ar        1 MOL      -0.0467
     23 C40        20.9973  -21.8180   26.0844 C.1         1 MOL       0.0934
     24 N63        21.5234  -22.8119   25.8403 N.1         1 MOL      -0.3338
     25 C45        17.6915  -14.4977   23.5000 C.3         1 MOL       0.1430
     26 C12        18.1603  -14.1499   24.9488 C.3         1 MOL       0.0742
     27 C46        17.7817  -15.1622   25.9234 C.2         1 MOL       0.1821
     28 O22        16.5897  -15.2655   26.2012 O.2         1 MOL      -0.3967
     29 N14        18.6908  -15.9428   26.5055 N.am        1 MOL      -0.2739
     30 N15        18.6049  -12.9722   21.6752 N.am        1 MOL      -0.2500
     31 C16        18.4046  -11.8702   20.7502 C.3         1 MOL       0.1338
     32 C17        17.1844  -12.0176   19.9505 C.2         1 MOL       0.2037
     33 O18        17.1096  -12.9662   19.1799 O.2         1 MOL      -0.3944
     34 C34        19.6798  -11.8089   19.8685 C.3         1 MOL      -0.0104
     35 C1         20.7232  -12.5913   20.6721 C.3         1 MOL      -0.0281
     36 C2         19.8853  -13.5926   21.4878 C.3         1 MOL       0.0369
     37 N19        16.1499  -11.2122   20.1587 N.am        1 MOL      -0.2737
     38 C20        14.8385  -11.3477   19.5965 C.3         1 MOL       0.0645
     39 C21        13.8127  -11.2221   20.6610 C.ar        1 MOL      -0.0210
     40 C26        13.7545  -12.1629   21.7144 C.ar        1 MOL      -0.0584
     41 C25        12.7941  -12.0442   22.7336 C.ar        1 MOL      -0.0633
     42 C24        11.8467  -10.9850   22.7392 C.ar        1 MOL       0.0188
     43 C27        10.8914  -10.8578   23.7594 C.cat       1 MOL       0.2318
     44 N29        10.4001  -11.8657   24.3782 N.pl3       1 MOL      -0.2729
     45 N28        10.4406   -9.7213   24.1412 N.pl3       1 MOL      -0.2729
     46 C23        11.9026  -10.0602   21.6618 C.ar        1 MOL      -0.0633
     47 C22        12.8661  -10.1724   20.6457 C.ar        1 MOL      -0.0584
     48 H1         23.6125  -21.2952   19.4610 H           1 MOL       0.0578
     49 H2         22.1522  -21.5573   20.4264 H           1 MOL       0.0578
     50 H3         23.3472  -20.3241   20.9141 H           1 MOL       0.0578
     51 H4         20.7632  -16.3456   21.6762 H           1 MOL       0.0610
     52 H5         17.8507  -19.0575   20.2646 H           1 MOL       0.0614
     53 H6         22.4833  -17.6483   20.6291 H           1 MOL       0.0542
     54 H7         19.3681  -15.6860   23.2830 H           1 MOL       0.1706
     55 H8         18.8582  -16.6790   28.4174 H           1 MOL       0.0704
     56 H9         17.3774  -17.1483   27.6158 H           1 MOL       0.0704
     57 H10        21.0896  -17.5194   27.2320 H           1 MOL       0.0584
     58 H11        22.1862  -19.5749   26.6662 H           1 MOL       0.0701
     59 H12        18.4200  -21.4376   26.1701 H           1 MOL       0.0701
     60 H13        17.3319  -19.3786   26.7346 H           1 MOL       0.0584
     61 H14        16.6451  -14.8296   23.5624 H           1 MOL       0.0779
     62 H15        17.7139  -13.2038   25.2665 H           1 MOL       0.0547
     63 H16        19.2453  -13.9984   24.9465 H           1 MOL       0.0547
     64 H17        19.6194  -15.7778   26.2707 H           1 MOL       0.1881
     65 H18        18.3589  -10.9449   21.3409 H           1 MOL       0.0802
     66 H19        20.0080  -10.7781   19.7060 H           1 MOL       0.0313
     67 H20        19.5426  -12.2916   18.8933 H           1 MOL       0.0313
     68 H21        21.2636  -11.9145   21.3394 H           1 MOL       0.0287
     69 H22        21.4413  -13.1017   20.0245 H           1 MOL       0.0287
     70 H23        19.7793  -14.5268   20.9233 H           1 MOL       0.0524
     71 H24        20.3884  -13.7925   22.4367 H           1 MOL       0.0524
     72 H25        16.2819  -10.4861   20.7907 H           1 MOL       0.1878
     73 H26        14.6928  -12.3014   19.0836 H           1 MOL       0.0683
     74 H27        14.7236  -10.5673   18.8453 H           1 MOL       0.0683
     75 H28        14.4170  -12.9430   21.7454 H           1 MOL       0.0557
     76 H29        12.8051  -12.7407   23.4847 H           1 MOL       0.0599
     77 H30         9.7501  -11.7387   25.0395 H           1 MOL       0.3180
     78 H31        10.6597  -12.7407   24.1596 H           1 MOL       0.3180
     79 H32        10.7429   -8.9324   23.7432 H           1 MOL       0.3180
     80 H33         9.8014   -9.6721   24.8216 H           1 MOL       0.3180
     81 H34        11.2269   -9.2918   21.5934 H           1 MOL       0.0599
     82 H35        12.8783   -9.4746   19.8944 H           1 MOL       0.0557
@<TRIPOS>BOND
     1     1     3   1
     2     1     7   2
     3     1     8   2
     4    14     1  am
     5    12     2   1
     6     3     9  ar
     7     3    10  ar
     8     5     4   1
     9     6     5   1
    10    11     6  ar
    11    12     6  ar
    12     9    11  ar
    13    10    12  ar
    14    13    15   2
    15    25    13   1
    16    13    30  am
    17    25    14   1
    18    16    17   1
    19    29    16   1
    20    17    18  ar
    21    17    22  ar
    22    18    19  ar
    23    19    20  ar
    24    21    20  ar
    25    20    23   1
    26    22    21  ar
    27    23    24   3
    28    26    25   1
    29    27    26   1
    30    27    28   2
    31    27    29  am
    32    30    31   1
    33    30    36   1
    34    31    32   1
    35    31    34   1
    36    32    33   2
    37    32    37  am
    38    34    35   1
    39    35    36   1
    40    37    38   1
    41    38    39   1
    42    39    40  ar
    43    39    47  ar
    44    40    41  ar
    45    41    42  ar
    46    42    43   1
    47    42    46  ar
    48    43    44  ar
    49    43    45  ar
    50    46    47  ar
    51     4    48   1
    52     4    49   1
    53     4    50   1
    54     9    51   1
    55    10    52   1
    56    11    53   1
    57    14    54   1
    58    16    55   1
    59    16    56   1
    60    18    57   1
    61    19    58   1
    62    21    59   1
    63    22    60   1
    64    25    61   1
    65    26    62   1
    66    26    63   1
    67    29    64   1
    68    31    65   1
    69    34    66   1
    70    34    67   1
    71    35    68   1
    72    35    69   1
    73    36    70   1
    74    36    71   1
    75    37    72   1
    76    38    73   1
    77    38    74   1
    78    40    75   1
    79    41    76   1
    80    44    77   1
    81    44    78   1
    82    45    79   1
    83    45    80   1
    84    46    81   1
    85    47    82   1
@<TRIPOS>SUBSTRUCTURE
     1  MOL      2

