@<TRIPOS>MOLECULE
3utu_ligand_061
    82    85
SMALL
GAST_HUCK
****
This file was generated by PARSER (from files_GN.cpp)

@<TRIPOS>ATOM
      1 S8         20.3781  -17.3590   24.3167 S.o2        1 MOL       0.0657
      2 CL         23.3629  -17.7916   19.8109 Cl          1 MOL      -0.0788
      3 C35        20.6946  -18.1075   22.7706 C.ar        1 MOL       0.0977
      4 C10        21.4934  -21.2805   18.9935 C.3         1 MOL       0.0596
      5 O9         21.3582  -19.8489   18.9953 O.3         1 MOL      -0.3203
      6 C5         21.1467  -19.2924   20.2315 C.ar        1 MOL       0.1052
      7 O1         19.7309  -18.4157   25.3143 O.2         1 MOL      -0.1516
      8 O10        21.7601  -16.8891   24.9511 O.2         1 MOL      -0.1516
      9 C7         19.8080  -19.0828   22.2682 C.ar        1 MOL      -0.0438
     10 C3         21.8009  -17.7185   21.9855 C.ar        1 MOL      -0.0300
     11 C6         20.0265  -19.6626   21.0059 C.ar        1 MOL      -0.0306
     12 C4         22.0281  -18.3030   20.7227 C.ar        1 MOL       0.0696
     13 C13        18.1349  -14.4261   23.0289 C.2         1 MOL       0.2048
     14 N11        19.4003  -15.9852   24.2421 N.am        1 MOL      -0.2244
     15 O14        17.3561  -13.7451   23.6903 O.2         1 MOL      -0.3945
     16 C15        14.7998  -16.5916   20.9407 C.3         1 MOL       0.0687
     17 C31        15.3193  -16.3853   19.5635 C.ar        1 MOL      -0.0116
     18 C32        15.9141  -17.4655   18.8688 C.ar        1 MOL      -0.0467
     19 C33        16.4126  -17.3011   17.5631 C.ar        1 MOL      -0.0334
     20 C44        16.3179  -16.0472   16.9227 C.ar        1 MOL       0.0883
     21 C8         15.7184  -14.9648   17.6031 C.ar        1 MOL      -0.0334
     22 C9         15.2212  -15.1352   18.9103 C.ar        1 MOL      -0.0467
     23 C40        16.7922  -15.8870   15.7201 C.1         1 MOL       0.0934
     24 N63        17.2141  -15.7448   14.6603 N.1         1 MOL      -0.3338
     25 C45        18.2541  -15.8450   23.3973 C.3         1 MOL       0.1430
     26 C12        16.9779  -16.4756   24.0510 C.3         1 MOL       0.0742
     27 C46        15.8009  -16.6146   23.1935 C.2         1 MOL       0.1821
     28 O22        14.7694  -17.0281   23.7074 O.2         1 MOL      -0.3967
     29 N14        15.8503  -16.3833   21.8856 N.am        1 MOL      -0.2739
     30 N15        18.8199  -13.8333   22.0321 N.am        1 MOL      -0.2500
     31 C16        18.5853  -12.4695   21.6171 C.3         1 MOL       0.1338
     32 C17        17.3291  -12.3281   20.8836 C.2         1 MOL       0.2037
     33 O18        16.9848  -13.2066   20.1015 O.2         1 MOL      -0.3944
     34 C34        19.8147  -12.0986   20.7575 C.3         1 MOL      -0.0104
     35 C1         20.3067  -13.4421   20.2137 C.3         1 MOL      -0.0281
     36 C2         19.8826  -14.4564   21.2896 C.3         1 MOL       0.0369
     37 N19        16.6220  -11.2159   21.0251 N.am        1 MOL      -0.2737
     38 C20        15.3927  -10.8858   20.3801 C.3         1 MOL       0.0645
     39 C21        14.3243  -10.8577   21.4072 C.ar        1 MOL      -0.0210
     40 C26        13.9132   -9.6463   22.0006 C.ar        1 MOL      -0.0584
     41 C25        12.9112   -9.6362   22.9870 C.ar        1 MOL      -0.0633
     42 C24        12.2732  -10.8312   23.4190 C.ar        1 MOL       0.0188
     43 C27        11.2321  -10.8120   24.3711 C.cat       1 MOL       0.2318
     44 N29        10.7582   -9.7310   24.8634 N.pl3       1 MOL      -0.2729
     45 N28        10.6588  -11.8691   24.8061 N.pl3       1 MOL      -0.2729
     46 C23        12.7160  -12.0432   22.8226 C.ar        1 MOL      -0.0633
     47 C22        13.7243  -12.0583   21.8421 C.ar        1 MOL      -0.0584
     48 H1         21.7294  -21.5996   17.9764 H           1 MOL       0.0578
     49 H2         20.5611  -21.7655   19.2943 H           1 MOL       0.0578
     50 H3         22.3049  -21.6027   19.6520 H           1 MOL       0.0578
     51 H4         18.9892  -19.3689   22.8106 H           1 MOL       0.0610
     52 H5         22.4403  -16.9960   22.3234 H           1 MOL       0.0614
     53 H6         19.3604  -20.3528   20.6499 H           1 MOL       0.0542
     54 H7         19.5278  -15.3243   24.9396 H           1 MOL       0.1706
     55 H8         14.4109  -17.6128   21.0027 H           1 MOL       0.0704
     56 H9         13.9883  -15.8986   21.1821 H           1 MOL       0.0704
     57 H10        15.9909  -18.3848   19.3129 H           1 MOL       0.0584
     58 H11        16.8460  -18.1030   17.0924 H           1 MOL       0.0701
     59 H12        15.6362  -14.0449   17.1575 H           1 MOL       0.0701
     60 H13        14.7904  -14.3370   19.3832 H           1 MOL       0.0584
     61 H14        18.4135  -16.4274   22.4928 H           1 MOL       0.0779
     62 H15        16.7049  -15.8819   24.9277 H           1 MOL       0.0547
     63 H16        17.2275  -17.4777   24.4137 H           1 MOL       0.0547
     64 H17        16.6942  -16.0801   21.5185 H           1 MOL       0.1881
     65 H18        18.5880  -11.8129   22.4959 H           1 MOL       0.0802
     66 H19        20.5935  -11.6630   21.3899 H           1 MOL       0.0313
     67 H20        19.5835  -11.3935   19.9533 H           1 MOL       0.0313
     68 H21        21.3868  -13.4385   20.0600 H           1 MOL       0.0287
     69 H22        19.8062  -13.6632   19.2664 H           1 MOL       0.0287
     70 H23        19.5615  -15.3781   20.7953 H           1 MOL       0.0524
     71 H24        20.7173  -14.6691   21.9648 H           1 MOL       0.0524
     72 H25        16.9803  -10.5391   21.6219 H           1 MOL       0.1878
     73 H26        15.1198  -11.5825   19.5818 H           1 MOL       0.0683
     74 H27        15.5205   -9.9047   19.9160 H           1 MOL       0.0683
     75 H28        14.3476   -8.7611   21.7250 H           1 MOL       0.0557
     76 H29        12.6580   -8.7288   23.3826 H           1 MOL       0.0599
     77 H30        10.0475   -9.7657   25.4706 H           1 MOL       0.3180
     78 H31        11.0941   -8.8972   24.6112 H           1 MOL       0.3180
     79 H32        10.9116  -12.7194   24.5112 H           1 MOL       0.3180
     80 H33         9.9559  -11.7954   25.4192 H           1 MOL       0.3180
     81 H34        12.3111  -12.9427   23.0901 H           1 MOL       0.0599
     82 H35        14.0124  -12.9542   21.4398 H           1 MOL       0.0557
@<TRIPOS>BOND
     1     1     3   1
     2     1     7   2
     3     1     8   2
     4    14     1  am
     5    12     2   1
     6     3     9  ar
     7     3    10  ar
     8     5     4   1
     9     6     5   1
    10    11     6  ar
    11    12     6  ar
    12     9    11  ar
    13    10    12  ar
    14    13    15   2
    15    25    13   1
    16    13    30  am
    17    25    14   1
    18    16    17   1
    19    29    16   1
    20    17    18  ar
    21    17    22  ar
    22    18    19  ar
    23    19    20  ar
    24    21    20  ar
    25    20    23   1
    26    22    21  ar
    27    23    24   3
    28    26    25   1
    29    27    26   1
    30    27    28   2
    31    27    29  am
    32    30    31   1
    33    30    36   1
    34    31    32   1
    35    31    34   1
    36    32    33   2
    37    32    37  am
    38    34    35   1
    39    35    36   1
    40    37    38   1
    41    38    39   1
    42    39    40  ar
    43    39    47  ar
    44    40    41  ar
    45    41    42  ar
    46    42    43   1
    47    42    46  ar
    48    43    44  ar
    49    43    45  ar
    50    46    47  ar
    51     4    48   1
    52     4    49   1
    53     4    50   1
    54     9    51   1
    55    10    52   1
    56    11    53   1
    57    14    54   1
    58    16    55   1
    59    16    56   1
    60    18    57   1
    61    19    58   1
    62    21    59   1
    63    22    60   1
    64    25    61   1
    65    26    62   1
    66    26    63   1
    67    29    64   1
    68    31    65   1
    69    34    66   1
    70    34    67   1
    71    35    68   1
    72    35    69   1
    73    36    70   1
    74    36    71   1
    75    37    72   1
    76    38    73   1
    77    38    74   1
    78    40    75   1
    79    41    76   1
    80    44    77   1
    81    44    78   1
    82    45    79   1
    83    45    80   1
    84    46    81   1
    85    47    82   1
@<TRIPOS>SUBSTRUCTURE
     1  MOL      2

