@<TRIPOS>MOLECULE
3utu_ligand_001
    82    85
SMALL
GAST_HUCK
****
This file was generated by PARSER (from files_GN.cpp)

@<TRIPOS>ATOM
      1 S8         17.8289  -16.8622   22.1237 S.o2        1 MOL       0.0657
      2 CL         22.9322  -17.9191   20.6187 Cl          1 MOL      -0.0788
      3 C35        18.9847  -17.7864   21.1995 C.ar        1 MOL       0.0977
      4 C10        22.0601  -21.3280   19.5121 C.3         1 MOL       0.0596
      5 O9         21.6803  -20.0709   18.9251 O.3         1 MOL      -0.3203
      6 C5         20.8148  -19.3393   19.7019 C.ar        1 MOL       0.1052
      7 O1         16.7689  -16.3268   21.0654 O.2         1 MOL      -0.1516
      8 O10        17.0632  -17.8603   23.0906 O.2         1 MOL      -0.1516
      9 C7         18.5211  -18.8274   20.3667 C.ar        1 MOL      -0.0438
     10 C3         20.3657  -17.5260   21.2798 C.ar        1 MOL      -0.0300
     11 C6         19.4333  -19.5911   19.6174 C.ar        1 MOL      -0.0306
     12 C4         21.2810  -18.2880   20.5252 C.ar        1 MOL       0.0696
     13 C13        17.6117  -13.2870   22.4113 C.2         1 MOL       0.2048
     14 N11        18.4375  -15.5423   22.9887 N.am        1 MOL      -0.2244
     15 O14        16.7005  -12.5005   22.6503 O.2         1 MOL      -0.3945
     16 C15        20.9134  -12.6579   26.7298 C.3         1 MOL       0.0687
     17 C31        22.1075  -13.1939   26.0203 C.ar        1 MOL      -0.0116
     18 C32        22.8337  -12.3903   25.1112 C.ar        1 MOL      -0.0467
     19 C33        23.9201  -12.9178   24.3907 C.ar        1 MOL      -0.0334
     20 C44        24.2965  -14.2664   24.5628 C.ar        1 MOL       0.0883
     21 C8         23.5817  -15.0759   25.4720 C.ar        1 MOL      -0.0334
     22 C9         22.4998  -14.5395   26.1967 C.ar        1 MOL      -0.0467
     23 C40        25.2798  -14.7668   23.8679 C.1         1 MOL       0.0934
     24 N63        26.1406  -15.2086   23.2490 N.1         1 MOL      -0.3338
     25 C45        17.6289  -14.4192   23.3509 C.3         1 MOL       0.1430
     26 C12        17.9486  -13.9909   24.8226 C.3         1 MOL       0.0742
     27 C46        19.2072  -13.3114   25.0838 C.2         1 MOL       0.1821
     28 O22        19.7428  -12.6408   24.2108 O.2         1 MOL      -0.3967
     29 N14        19.7112  -13.3186   26.3137 N.am        1 MOL      -0.2739
     30 N15        18.4623  -12.9791   21.4035 N.am        1 MOL      -0.2500
     31 C16        18.3381  -11.7517   20.6478 C.3         1 MOL       0.1338
     32 C17        17.1165  -11.7606   19.8346 C.2         1 MOL       0.2037
     33 O18        16.9447  -12.6637   19.0249 O.2         1 MOL      -0.3944
     34 C34        19.6489  -11.5995   19.8409 C.3         1 MOL      -0.0104
     35 C1         20.2101  -13.0215   19.7572 C.3         1 MOL      -0.0281
     36 C2         19.5996  -13.7453   20.9733 C.3         1 MOL       0.0369
     37 N19        16.1593  -10.8923   20.1267 N.am        1 MOL      -0.2737
     38 C20        14.8089  -10.8686   19.6464 C.3         1 MOL       0.0645
     39 C21        13.8369  -10.8988   20.7698 C.ar        1 MOL      -0.0210
     40 C26        12.7934  -11.8525   20.8226 C.ar        1 MOL      -0.0584
     41 C25        11.8463  -11.8262   21.8673 C.ar        1 MOL      -0.0633
     42 C24        11.9004  -10.8457   22.8883 C.ar        1 MOL       0.0188
     43 C27        10.9431  -10.8011   23.9155 C.cat       1 MOL       0.2318
     44 N29        10.4146  -11.8578   24.3839 N.pl3       1 MOL      -0.2729
     45 N28        10.5666   -9.6879   24.4111 N.pl3       1 MOL      -0.2729
     46 C23        12.9489   -9.8917   22.8249 C.ar        1 MOL      -0.0633
     47 C22        13.8944   -9.9182   21.7839 C.ar        1 MOL      -0.0584
     48 H1         22.7530  -21.8216   18.8312 H           1 MOL       0.0578
     49 H2         21.1957  -21.9822   19.6513 H           1 MOL       0.0578
     50 H3         22.5662  -21.1816   20.4694 H           1 MOL       0.0578
     51 H4         17.5242  -19.0424   20.3035 H           1 MOL       0.0610
     52 H5         20.7119  -16.7863   21.8930 H           1 MOL       0.0614
     53 H6         19.0848  -20.3390   19.0110 H           1 MOL       0.0542
     54 H7         19.3923  -15.5032   23.1694 H           1 MOL       0.1706
     55 H8         20.7892  -11.5827   26.5708 H           1 MOL       0.0704
     56 H9         21.0392  -12.8120   27.8043 H           1 MOL       0.0704
     57 H10        22.5602  -11.4197   24.9488 H           1 MOL       0.0584
     58 H11        24.4173  -12.3127   23.7279 H           1 MOL       0.0701
     59 H12        23.8332  -16.0599   25.6103 H           1 MOL       0.0701
     60 H13        21.9892  -15.1446   26.8449 H           1 MOL       0.0584
     61 H14        16.5934  -14.7885   23.3877 H           1 MOL       0.0779
     62 H15        17.9057  -14.8945   25.4376 H           1 MOL       0.0547
     63 H16        17.1501  -13.3317   25.1762 H           1 MOL       0.0547
     64 H17        19.2272  -13.8181   26.9958 H           1 MOL       0.1881
     65 H18        18.3176  -10.9123   21.3556 H           1 MOL       0.0802
     66 H19        20.3572  -10.9723   20.3919 H           1 MOL       0.0313
     67 H20        19.4986  -11.1649   18.8492 H           1 MOL       0.0313
     68 H21        21.3057  -13.0246   19.7765 H           1 MOL       0.0287
     69 H22        19.8783  -13.4893   18.8264 H           1 MOL       0.0287
     70 H23        19.3078  -14.7484   20.6581 H           1 MOL       0.0524
     71 H24        20.3401  -13.8146   21.7767 H           1 MOL       0.0524
     72 H25        16.3884  -10.2100   20.7781 H           1 MOL       0.1878
     73 H26        14.6141  -11.6764   18.9366 H           1 MOL       0.0683
     74 H27        14.6593   -9.9323   19.1146 H           1 MOL       0.0683
     75 H28        12.6983  -12.5583   20.0873 H           1 MOL       0.0557
     76 H29        11.0896  -12.5153   21.8484 H           1 MOL       0.0599
     77 H30         9.7723  -11.7978   25.0623 H           1 MOL       0.3180
     78 H31        10.6610  -12.7054   24.0718 H           1 MOL       0.3180
     79 H32        10.9152   -8.8827   24.0889 H           1 MOL       0.3180
     80 H33         9.9221   -9.6651   25.0882 H           1 MOL       0.3180
     81 H34        13.0441   -9.1693   23.5443 H           1 MOL       0.0599
     82 H35        14.6235   -9.2000   21.7670 H           1 MOL       0.0557
@<TRIPOS>BOND
     1     1     3   1
     2     1     7   2
     3     1     8   2
     4    14     1  am
     5    12     2   1
     6     3     9  ar
     7     3    10  ar
     8     5     4   1
     9     6     5   1
    10    11     6  ar
    11    12     6  ar
    12     9    11  ar
    13    10    12  ar
    14    13    15   2
    15    25    13   1
    16    13    30  am
    17    25    14   1
    18    16    17   1
    19    29    16   1
    20    17    18  ar
    21    17    22  ar
    22    18    19  ar
    23    19    20  ar
    24    21    20  ar
    25    20    23   1
    26    22    21  ar
    27    23    24   3
    28    26    25   1
    29    27    26   1
    30    27    28   2
    31    27    29  am
    32    30    31   1
    33    30    36   1
    34    31    32   1
    35    31    34   1
    36    32    33   2
    37    32    37  am
    38    34    35   1
    39    35    36   1
    40    37    38   1
    41    38    39   1
    42    39    40  ar
    43    39    47  ar
    44    40    41  ar
    45    41    42  ar
    46    42    43   1
    47    42    46  ar
    48    43    44  ar
    49    43    45  ar
    50    46    47  ar
    51     4    48   1
    52     4    49   1
    53     4    50   1
    54     9    51   1
    55    10    52   1
    56    11    53   1
    57    14    54   1
    58    16    55   1
    59    16    56   1
    60    18    57   1
    61    19    58   1
    62    21    59   1
    63    22    60   1
    64    25    61   1
    65    26    62   1
    66    26    63   1
    67    29    64   1
    68    31    65   1
    69    34    66   1
    70    34    67   1
    71    35    68   1
    72    35    69   1
    73    36    70   1
    74    36    71   1
    75    37    72   1
    76    38    73   1
    77    38    74   1
    78    40    75   1
    79    41    76   1
    80    44    77   1
    81    44    78   1
    82    45    79   1
    83    45    80   1
    84    46    81   1
    85    47    82   1
@<TRIPOS>SUBSTRUCTURE
     1  MOL      2

