@<TRIPOS>MOLECULE
3utu_ligand_064
    82    85
SMALL
GAST_HUCK
****
This file was generated by PARSER (from files_GN.cpp)

@<TRIPOS>ATOM
      1 S8         16.1980  -16.0238   22.3644 S.o2        1 MOL       0.0657
      2 CL         15.1007  -19.2897   26.5577 Cl          1 MOL      -0.0788
      3 C35        15.3109  -17.3525   23.0630 C.ar        1 MOL       0.0977
      4 C10        12.1002  -20.2365   25.5640 C.3         1 MOL       0.0596
      5 O9         13.1653  -20.5895   24.6684 O.3         1 MOL      -0.3203
      6 C5         13.8419  -19.5044   24.1755 C.ar        1 MOL       0.1052
      7 O1         16.8208  -16.4364   20.9594 O.2         1 MOL      -0.1516
      8 O10        15.1209  -14.8780   22.1339 O.2         1 MOL      -0.1516
      9 C7         14.3618  -18.0472   22.2829 C.ar        1 MOL      -0.0438
     10 C3         15.5144  -17.7382   24.4081 C.ar        1 MOL      -0.0300
     11 C6         13.6299  -19.1137   22.8377 C.ar        1 MOL      -0.0306
     12 C4         14.7969  -18.8167   24.9604 C.ar        1 MOL       0.0696
     13 C13        19.1785  -14.1384   22.4834 C.2         1 MOL       0.2048
     14 N11        17.3897  -15.4378   23.4022 N.am        1 MOL      -0.2244
     15 O14        19.9868  -15.0254   22.7325 O.2         1 MOL      -0.3945
     16 C15        18.6358  -16.1423   27.4425 C.3         1 MOL       0.0687
     17 C31        18.6101  -17.5233   26.8982 C.ar        1 MOL      -0.0116
     18 C32        19.1953  -17.8041   25.6386 C.ar        1 MOL      -0.0467
     19 C33        19.1882  -19.1090   25.1153 C.ar        1 MOL      -0.0334
     20 C44        18.6052  -20.1655   25.8516 C.ar        1 MOL       0.0883
     21 C8         18.0584  -19.9011   27.1256 C.ar        1 MOL      -0.0334
     22 C9         18.0623  -18.5917   27.6445 C.ar        1 MOL      -0.0467
     23 C40        18.5605  -21.3726   25.3640 C.1         1 MOL       0.0934
     24 N63        18.5111  -22.4399   24.9395 N.1         1 MOL      -0.3338
     25 C45        17.9657  -14.1301   23.3138 C.3         1 MOL       0.1430
     26 C12        18.2085  -13.5497   24.7376 C.3         1 MOL       0.0742
     27 C46        18.8642  -14.4463   25.6730 C.2         1 MOL       0.1821
     28 O22        20.0863  -14.5311   25.6404 O.2         1 MOL      -0.3967
     29 N14        18.1325  -15.2018   26.4871 N.am        1 MOL      -0.2739
     30 N15        19.4866  -13.2392   21.5253 N.am        1 MOL      -0.2500
     31 C16        18.7492  -12.0349   21.2179 C.3         1 MOL       0.1338
     32 C17        17.4646  -12.2709   20.5624 C.2         1 MOL       0.2037
     33 O18        17.3445  -13.2389   19.8186 O.2         1 MOL      -0.3944
     34 C34        19.7000  -11.2036   20.3188 C.3         1 MOL      -0.0104
     35 C1         20.6192  -12.2432   19.6705 C.3         1 MOL      -0.0281
     36 C2         20.6748  -13.3619   20.7208 C.3         1 MOL       0.0369
     37 N19        16.4729  -11.4111   20.7521 N.am        1 MOL      -0.2737
     38 C20        15.1564  -11.4775   20.1976 C.3         1 MOL       0.0645
     39 C21        14.1401  -11.3477   21.2730 C.ar        1 MOL      -0.0210
     40 C26        13.3175  -12.4348   21.6411 C.ar        1 MOL      -0.0584
     41 C25        12.3444  -12.2974   22.6469 C.ar        1 MOL      -0.0633
     42 C24        12.1394  -11.0596   23.3139 C.ar        1 MOL       0.0188
     43 C27        11.1273  -10.9082   24.2812 C.cat       1 MOL       0.2318
     44 N29        10.6016  -11.8985   24.8924 N.pl3       1 MOL      -0.2729
     45 N28        10.6488   -9.7647   24.6033 N.pl3       1 MOL      -0.2729
     46 C23        12.9794   -9.9769   22.9405 C.ar        1 MOL      -0.0633
     47 C22        13.9626  -10.1196   21.9455 C.ar        1 MOL      -0.0584
     48 H1         11.6157  -21.1605   25.8806 H           1 MOL       0.0578
     49 H2         11.3632  -19.6047   25.0620 H           1 MOL       0.0578
     50 H3         12.4738  -19.7243   26.4541 H           1 MOL       0.0578
     51 H4         14.1960  -17.7845   21.3058 H           1 MOL       0.0610
     52 H5         16.1867  -17.2377   24.9897 H           1 MOL       0.0614
     53 H6         12.9395  -19.6087   22.2633 H           1 MOL       0.0542
     54 H7         17.8785  -16.1000   23.9166 H           1 MOL       0.1706
     55 H8         19.6664  -15.9130   27.7265 H           1 MOL       0.0704
     56 H9         18.0237  -16.0529   28.3464 H           1 MOL       0.0704
     57 H10        19.6203  -17.0496   25.0923 H           1 MOL       0.0584
     58 H11        19.6075  -19.2735   24.1956 H           1 MOL       0.0701
     59 H12        17.6520  -20.6558   27.6903 H           1 MOL       0.0701
     60 H13        17.6719  -18.4295   28.5784 H           1 MOL       0.0584
     61 H14        17.2182  -13.4759   22.8678 H           1 MOL       0.0779
     62 H15        17.2411  -13.2595   25.1630 H           1 MOL       0.0547
     63 H16        18.7980  -12.6320   24.6573 H           1 MOL       0.0547
     64 H17        17.1651  -15.1527   26.3881 H           1 MOL       0.1881
     65 H18        18.5922  -11.4713   22.1447 H           1 MOL       0.0802
     66 H19        20.3031  -10.5218   20.9292 H           1 MOL       0.0313
     67 H20        19.1771  -10.6088   19.5646 H           1 MOL       0.0313
     68 H21        21.6097  -11.8345   19.4509 H           1 MOL       0.0287
     69 H22        20.1693  -12.6100   18.7423 H           1 MOL       0.0287
     70 H23        20.7172  -14.3322   20.2164 H           1 MOL       0.0524
     71 H24        21.5614  -13.2395   21.3513 H           1 MOL       0.0524
     72 H25        16.6592  -10.6449   21.3223 H           1 MOL       0.1878
     73 H26        14.9984  -12.3974   19.6256 H           1 MOL       0.0683
     74 H27        15.0399  -10.6488   19.4974 H           1 MOL       0.0683
     75 H28        13.4170  -13.3368   21.1737 H           1 MOL       0.0557
     76 H29        11.7633  -13.1113   22.8625 H           1 MOL       0.0599
     77 H30         9.9149  -11.7525   25.5108 H           1 MOL       0.3180
     78 H31        10.8845  -12.7748   24.7239 H           1 MOL       0.3180
     79 H32        10.9562   -8.9836   24.1910 H           1 MOL       0.3180
     80 H33         9.9640   -9.7071   25.2385 H           1 MOL       0.3180
     81 H34        12.8970   -9.0679   23.4054 H           1 MOL       0.0599
     82 H35        14.5446   -9.3143   21.7067 H           1 MOL       0.0557
@<TRIPOS>BOND
     1     1     3   1
     2     1     7   2
     3     1     8   2
     4    14     1  am
     5    12     2   1
     6     3     9  ar
     7     3    10  ar
     8     5     4   1
     9     6     5   1
    10    11     6  ar
    11    12     6  ar
    12     9    11  ar
    13    10    12  ar
    14    13    15   2
    15    25    13   1
    16    13    30  am
    17    25    14   1
    18    16    17   1
    19    29    16   1
    20    17    18  ar
    21    17    22  ar
    22    18    19  ar
    23    19    20  ar
    24    21    20  ar
    25    20    23   1
    26    22    21  ar
    27    23    24   3
    28    26    25   1
    29    27    26   1
    30    27    28   2
    31    27    29  am
    32    30    31   1
    33    30    36   1
    34    31    32   1
    35    31    34   1
    36    32    33   2
    37    32    37  am
    38    34    35   1
    39    35    36   1
    40    37    38   1
    41    38    39   1
    42    39    40  ar
    43    39    47  ar
    44    40    41  ar
    45    41    42  ar
    46    42    43   1
    47    42    46  ar
    48    43    44  ar
    49    43    45  ar
    50    46    47  ar
    51     4    48   1
    52     4    49   1
    53     4    50   1
    54     9    51   1
    55    10    52   1
    56    11    53   1
    57    14    54   1
    58    16    55   1
    59    16    56   1
    60    18    57   1
    61    19    58   1
    62    21    59   1
    63    22    60   1
    64    25    61   1
    65    26    62   1
    66    26    63   1
    67    29    64   1
    68    31    65   1
    69    34    66   1
    70    34    67   1
    71    35    68   1
    72    35    69   1
    73    36    70   1
    74    36    71   1
    75    37    72   1
    76    38    73   1
    77    38    74   1
    78    40    75   1
    79    41    76   1
    80    44    77   1
    81    44    78   1
    82    45    79   1
    83    45    80   1
    84    46    81   1
    85    47    82   1
@<TRIPOS>SUBSTRUCTURE
     1  MOL      2

