@<TRIPOS>MOLECULE
3utu_ligand_069
    82    85
SMALL
GAST_HUCK
****
This file was generated by PARSER (from files_GN.cpp)

@<TRIPOS>ATOM
      1 S8         20.4087  -16.0310   22.8951 S.o2        1 MOL       0.0657
      2 CL         24.1730  -19.3933   20.9652 Cl          1 MOL      -0.0788
      3 C35        21.6585  -17.2154   23.1824 C.ar        1 MOL       0.0977
      4 C10        26.0102  -19.4711   24.0490 C.3         1 MOL       0.0596
      5 O9         24.7001  -20.0367   23.8691 O.3         1 MOL      -0.3203
      6 C5         23.7282  -19.1005   23.6238 C.ar        1 MOL       0.1052
      7 O1         21.1363  -14.6215   22.7809 O.2         1 MOL      -0.1516
      8 O10        19.7582  -16.3713   21.4804 O.2         1 MOL      -0.1516
      9 C7         21.9692  -17.6381   24.4907 C.ar        1 MOL      -0.0438
     10 C3         22.3778  -17.7596   22.0955 C.ar        1 MOL      -0.0300
     11 C6         22.9960  -18.5719   24.7120 C.ar        1 MOL      -0.0306
     12 C4         23.3917  -18.7108   22.3090 C.ar        1 MOL       0.0696
     13 C13        17.7453  -14.4361   22.8597 C.2         1 MOL       0.2048
     14 N11        19.2087  -15.9845   24.0797 N.am        1 MOL      -0.2244
     15 O14        18.4149  -13.4529   22.5740 O.2         1 MOL      -0.3945
     16 C15        21.3995  -12.8804   26.8148 C.3         1 MOL       0.0687
     17 C31        22.4966  -13.3992   25.9567 C.ar        1 MOL      -0.0116
     18 C32        23.1535  -12.5681   25.0226 C.ar        1 MOL      -0.0467
     19 C33        24.1953  -13.0693   24.2233 C.ar        1 MOL      -0.0334
     20 C44        24.6060  -14.4165   24.3499 C.ar        1 MOL       0.0883
     21 C8         23.9502  -15.2521   25.2815 C.ar        1 MOL      -0.0334
     22 C9         22.8966  -14.7506   26.0627 C.ar        1 MOL      -0.0467
     23 C40        25.5794  -14.8818   23.6265 C.1         1 MOL       0.0934
     24 N63        26.4412  -15.3025   22.9970 N.1         1 MOL      -0.3338
     25 C45        18.0776  -15.1000   24.1307 C.3         1 MOL       0.1430
     26 C12        18.1370  -14.1444   25.3691 C.3         1 MOL       0.0742
     27 C46        19.3532  -13.3573   25.5274 C.2         1 MOL       0.1821
     28 O22        19.5794  -12.4482   24.7348 O.2         1 MOL      -0.3967
     29 N14        20.1679  -13.5610   26.5607 N.am        1 MOL      -0.2739
     30 N15        16.8517  -14.8743   21.9473 N.am        1 MOL      -0.2500
     31 C16        16.5806  -14.1835   20.6992 C.3         1 MOL       0.1338
     32 C17        15.8478  -12.9239   20.8632 C.2         1 MOL       0.2037
     33 O18        15.5949  -12.5176   21.9921 O.2         1 MOL      -0.3944
     34 C34        15.8499  -15.2409   19.8337 C.3         1 MOL      -0.0104
     35 C1         15.1701  -16.1612   20.8486 C.3         1 MOL      -0.0281
     36 C2         16.1003  -16.0939   22.0685 C.3         1 MOL       0.0369
     37 N19        15.5008  -12.2285   19.7916 N.am        1 MOL      -0.2737
     38 C20        14.8654  -10.9394   19.7527 C.3         1 MOL       0.0645
     39 C21        13.7800  -10.7711   20.7588 C.ar        1 MOL      -0.0210
     40 C26        12.6416  -11.6067   20.7259 C.ar        1 MOL      -0.0584
     41 C25        11.6978  -11.5681   21.7690 C.ar        1 MOL      -0.0633
     42 C24        11.8419  -10.6733   22.8589 C.ar        1 MOL       0.0188
     43 C27        10.9148  -10.6502   23.9064 C.cat       1 MOL       0.2318
     44 N29        10.5064   -9.5521   24.4256 N.pl3       1 MOL      -0.2729
     45 N28        10.4211  -11.7161   24.4197 N.pl3       1 MOL      -0.2729
     46 C23        12.9643   -9.8059   22.8551 C.ar        1 MOL      -0.0633
     47 C22        13.9154   -9.8518   21.8197 C.ar        1 MOL      -0.0584
     48 H1         26.7076  -20.2846   24.2492 H           1 MOL       0.0578
     49 H2         26.0329  -18.7851   24.8998 H           1 MOL       0.0578
     50 H3         26.3482  -18.9486   23.1499 H           1 MOL       0.0578
     51 H4         21.4665  -17.2642   25.2947 H           1 MOL       0.0610
     52 H5         22.1537  -17.4704   21.1387 H           1 MOL       0.0614
     53 H6         23.2134  -18.8708   25.6614 H           1 MOL       0.0542
     54 H7         19.3052  -16.6012   24.8239 H           1 MOL       0.1706
     55 H8         21.2542  -11.8031   26.6786 H           1 MOL       0.0704
     56 H9         21.6744  -13.0306   27.8608 H           1 MOL       0.0704
     57 H10        22.8601  -11.5941   24.9038 H           1 MOL       0.0584
     58 H11        24.6428  -12.4432   23.5452 H           1 MOL       0.0701
     59 H12        24.2366  -16.2279   25.3954 H           1 MOL       0.0701
     60 H13        22.4335  -15.3788   26.7251 H           1 MOL       0.0584
     61 H14        17.2568  -15.7689   24.3735 H           1 MOL       0.0779
     62 H15        17.9968  -14.7549   26.2709 H           1 MOL       0.0547
     63 H16        17.2829  -13.4599   25.3384 H           1 MOL       0.0547
     64 H17        19.9009  -14.2333   27.2112 H           1 MOL       0.1881
     65 H18        17.5231  -13.9437   20.1935 H           1 MOL       0.0802
     66 H19        16.5891  -15.8190   19.2653 H           1 MOL       0.0313
     67 H20        15.1284  -14.8243   19.1258 H           1 MOL       0.0313
     68 H21        15.0638  -17.1787   20.4709 H           1 MOL       0.0287
     69 H22        14.1833  -15.7662   21.1102 H           1 MOL       0.0287
     70 H23        15.4949  -16.1102   22.9789 H           1 MOL       0.0524
     71 H24        16.7870  -16.9487   22.0699 H           1 MOL       0.0524
     72 H25        15.7066  -12.6189   18.9283 H           1 MOL       0.1878
     73 H26        14.4358  -10.7977   18.7590 H           1 MOL       0.0683
     74 H27        15.6479  -10.1851   19.8759 H           1 MOL       0.0683
     75 H28        12.5185  -12.2839   19.9655 H           1 MOL       0.0557
     76 H29        10.9009  -12.2072   21.7173 H           1 MOL       0.0599
     77 H30         9.8784   -9.5653   25.1162 H           1 MOL       0.3180
     78 H31        10.8154   -8.7331   24.1027 H           1 MOL       0.3180
     79 H32        10.6781  -12.5644   24.1158 H           1 MOL       0.3180
     80 H33         9.8106  -11.6502   25.1199 H           1 MOL       0.3180
     81 H34        13.1298   -9.1549   23.6226 H           1 MOL       0.0599
     82 H35        14.7274   -9.2307   21.8634 H           1 MOL       0.0557
@<TRIPOS>BOND
     1     1     3   1
     2     1     7   2
     3     1     8   2
     4    14     1  am
     5    12     2   1
     6     3     9  ar
     7     3    10  ar
     8     5     4   1
     9     6     5   1
    10    11     6  ar
    11    12     6  ar
    12     9    11  ar
    13    10    12  ar
    14    13    15   2
    15    25    13   1
    16    13    30  am
    17    25    14   1
    18    16    17   1
    19    29    16   1
    20    17    18  ar
    21    17    22  ar
    22    18    19  ar
    23    19    20  ar
    24    21    20  ar
    25    20    23   1
    26    22    21  ar
    27    23    24   3
    28    26    25   1
    29    27    26   1
    30    27    28   2
    31    27    29  am
    32    30    31   1
    33    30    36   1
    34    31    32   1
    35    31    34   1
    36    32    33   2
    37    32    37  am
    38    34    35   1
    39    35    36   1
    40    37    38   1
    41    38    39   1
    42    39    40  ar
    43    39    47  ar
    44    40    41  ar
    45    41    42  ar
    46    42    43   1
    47    42    46  ar
    48    43    44  ar
    49    43    45  ar
    50    46    47  ar
    51     4    48   1
    52     4    49   1
    53     4    50   1
    54     9    51   1
    55    10    52   1
    56    11    53   1
    57    14    54   1
    58    16    55   1
    59    16    56   1
    60    18    57   1
    61    19    58   1
    62    21    59   1
    63    22    60   1
    64    25    61   1
    65    26    62   1
    66    26    63   1
    67    29    64   1
    68    31    65   1
    69    34    66   1
    70    34    67   1
    71    35    68   1
    72    35    69   1
    73    36    70   1
    74    36    71   1
    75    37    72   1
    76    38    73   1
    77    38    74   1
    78    40    75   1
    79    41    76   1
    80    44    77   1
    81    44    78   1
    82    45    79   1
    83    45    80   1
    84    46    81   1
    85    47    82   1
@<TRIPOS>SUBSTRUCTURE
     1  MOL      2

