@<TRIPOS>MOLECULE
3utu_ligand_091
    82    85
SMALL
GAST_HUCK
****
This file was generated by PARSER (from files_GN.cpp)

@<TRIPOS>ATOM
      1 S8         19.1749  -16.0884   24.7819 S.o2        1 MOL       0.0657
      2 CL         24.5231  -15.9206   25.4751 Cl          1 MOL      -0.0788
      3 C35        20.6546  -15.1722   24.8085 C.ar        1 MOL       0.0977
      4 C10        24.9892  -12.7459   24.1591 C.3         1 MOL       0.0596
      5 O9         24.1617  -12.9232   25.3233 O.3         1 MOL      -0.3203
      6 C5         23.0443  -13.6836   25.1035 C.ar        1 MOL       0.1052
      7 O1         19.3232  -17.6602   24.5694 O.2         1 MOL      -0.1516
      8 O10        18.7625  -16.0217   26.3179 O.2         1 MOL      -0.1516
      9 C7         20.6272  -13.7652   24.7321 C.ar        1 MOL      -0.0438
     10 C3         21.8845  -15.8350   25.0120 C.ar        1 MOL      -0.0300
     11 C6         21.8157  -13.0259   24.8795 C.ar        1 MOL      -0.0306
     12 C4         23.0727  -15.0951   25.1754 C.ar        1 MOL       0.0696
     13 C13        16.6740  -14.3290   22.2410 C.2         1 MOL       0.2048
     14 N11        17.7950  -15.4372   24.0703 N.am        1 MOL      -0.2244
     15 O14        16.3207  -13.5612   23.1329 O.2         1 MOL      -0.3945
     16 C15        15.1366  -19.0139   24.9267 C.3         1 MOL       0.0687
     17 C31        15.8871  -19.2725   26.1855 C.ar        1 MOL      -0.0116
     18 C32        16.0293  -20.5816   26.7068 C.ar        1 MOL      -0.0467
     19 C33        16.7771  -20.8142   27.8771 C.ar        1 MOL      -0.0334
     20 C44        17.3850  -19.7393   28.5563 C.ar        1 MOL       0.0883
     21 C8         17.2343  -18.4275   28.0554 C.ar        1 MOL      -0.0334
     22 C9         16.4957  -18.2031   26.8784 C.ar        1 MOL      -0.0467
     23 C40        18.1000  -19.9571   29.6256 C.1         1 MOL       0.0934
     24 N63        18.7347  -20.1480   30.5639 N.1         1 MOL      -0.3338
     25 C45        17.4885  -15.4916   22.6628 C.3         1 MOL       0.1430
     26 C12        16.8902  -16.8999   22.3249 C.3         1 MOL       0.0742
     27 C46        15.8307  -17.3695   23.2087 C.2         1 MOL       0.1821
     28 O22        14.7466  -16.7969   23.1885 O.2         1 MOL      -0.3967
     29 N14        16.0218  -18.4571   23.9471 N.am        1 MOL      -0.2739
     30 N15        16.3809  -13.9705   20.9710 N.am        1 MOL      -0.2500
     31 C16        15.8441  -12.6684   20.6132 C.3         1 MOL       0.1338
     32 C17        14.5818  -12.2839   21.2434 C.2         1 MOL       0.2037
     33 O18        14.5949  -11.3090   21.9865 O.2         1 MOL      -0.3944
     34 C34        15.7493  -12.6557   19.0666 C.3         1 MOL      -0.0104
     35 C1         16.8064  -13.6831   18.6491 C.3         1 MOL      -0.0281
     36 C2         16.7677  -14.7057   19.7975 C.3         1 MOL       0.0369
     37 N19        13.4789  -13.0029   21.0509 N.am        1 MOL      -0.2737
     38 C20        12.1422  -12.8216   21.5502 C.3         1 MOL       0.0645
     39 C21        11.8337  -11.5954   22.3364 C.ar        1 MOL      -0.0210
     40 C26        11.6270  -11.6454   23.7327 C.ar        1 MOL      -0.0584
     41 C25        11.4427  -10.4651   24.4762 C.ar        1 MOL      -0.0633
     42 C24        11.4804   -9.1978   23.8434 C.ar        1 MOL       0.0188
     43 C27        11.3904   -8.0297   24.5965 C.cat       1 MOL       0.2318
     44 N29        10.5105   -7.8901   25.5016 N.pl3       1 MOL      -0.2729
     45 N28        12.2098   -7.0623   24.4122 N.pl3       1 MOL      -0.2729
     46 C23        11.6543   -9.1535   22.4406 C.ar        1 MOL      -0.0633
     47 C22        11.8086  -10.3362   21.6947 C.ar        1 MOL      -0.0584
     48 H1         25.8476  -12.1325   24.4495 H           1 MOL       0.0578
     49 H2         24.4467  -12.2301   23.3593 H           1 MOL       0.0578
     50 H3         25.3600  -13.7073   23.7936 H           1 MOL       0.0578
     51 H4         19.7406  -13.2675   24.6013 H           1 MOL       0.0610
     52 H5         21.9096  -16.8586   25.0717 H           1 MOL       0.0614
     53 H6         21.7861  -12.0067   24.8384 H           1 MOL       0.0542
     54 H7         17.0510  -15.2599   24.6682 H           1 MOL       0.1706
     55 H8         14.2927  -18.3565   25.1471 H           1 MOL       0.0704
     56 H9         14.7281  -19.9393   24.5145 H           1 MOL       0.0704
     57 H10        15.6028  -21.3771   26.2296 H           1 MOL       0.0584
     58 H11        16.8724  -21.7762   28.2208 H           1 MOL       0.0701
     59 H12        17.6635  -17.6292   28.5325 H           1 MOL       0.0701
     60 H13        16.4030  -17.2432   26.5345 H           1 MOL       0.0584
     61 H14        18.4395  -15.3932   22.1291 H           1 MOL       0.0779
     62 H15        17.7228  -17.6097   22.3513 H           1 MOL       0.0547
     63 H16        16.5179  -16.9277   21.3040 H           1 MOL       0.0547
     64 H17        16.8640  -18.9258   23.8237 H           1 MOL       0.1881
     65 H18        16.6170  -11.9383   20.8873 H           1 MOL       0.0802
     66 H19        15.9637  -11.6651   18.6520 H           1 MOL       0.0313
     67 H20        14.7682  -12.9854   18.7081 H           1 MOL       0.0313
     68 H21        17.7927  -13.2049   18.5952 H           1 MOL       0.0287
     69 H22        16.5773  -14.1384   17.6804 H           1 MOL       0.0287
     70 H23        16.0130  -15.4655   19.5822 H           1 MOL       0.0524
     71 H24        17.7476  -15.1790   19.8828 H           1 MOL       0.0524
     72 H25        13.5809  -13.7747   20.4724 H           1 MOL       0.1878
     73 H26        11.9097  -13.7106   22.1406 H           1 MOL       0.0683
     74 H27        11.4715  -12.8406   20.6887 H           1 MOL       0.0683
     75 H28        11.6417  -12.5400   24.2283 H           1 MOL       0.0557
     76 H29        11.3332  -10.5398   25.4916 H           1 MOL       0.0599
     77 H30        10.4775   -7.1037   26.0068 H           1 MOL       0.3180
     78 H31         9.8735   -8.5591   25.6587 H           1 MOL       0.3180
     79 H32        12.8833   -7.1256   23.7683 H           1 MOL       0.3180
     80 H33        12.1456   -6.2906   24.9353 H           1 MOL       0.3180
     81 H34        11.6707   -8.2575   21.9456 H           1 MOL       0.0599
     82 H35        11.9563  -10.2648   20.6847 H           1 MOL       0.0557
@<TRIPOS>BOND
     1     1     3   1
     2     1     7   2
     3     1     8   2
     4    14     1  am
     5    12     2   1
     6     3     9  ar
     7     3    10  ar
     8     5     4   1
     9     6     5   1
    10    11     6  ar
    11    12     6  ar
    12     9    11  ar
    13    10    12  ar
    14    13    15   2
    15    25    13   1
    16    13    30  am
    17    25    14   1
    18    16    17   1
    19    29    16   1
    20    17    18  ar
    21    17    22  ar
    22    18    19  ar
    23    19    20  ar
    24    21    20  ar
    25    20    23   1
    26    22    21  ar
    27    23    24   3
    28    26    25   1
    29    27    26   1
    30    27    28   2
    31    27    29  am
    32    30    31   1
    33    30    36   1
    34    31    32   1
    35    31    34   1
    36    32    33   2
    37    32    37  am
    38    34    35   1
    39    35    36   1
    40    37    38   1
    41    38    39   1
    42    39    40  ar
    43    39    47  ar
    44    40    41  ar
    45    41    42  ar
    46    42    43   1
    47    42    46  ar
    48    43    44  ar
    49    43    45  ar
    50    46    47  ar
    51     4    48   1
    52     4    49   1
    53     4    50   1
    54     9    51   1
    55    10    52   1
    56    11    53   1
    57    14    54   1
    58    16    55   1
    59    16    56   1
    60    18    57   1
    61    19    58   1
    62    21    59   1
    63    22    60   1
    64    25    61   1
    65    26    62   1
    66    26    63   1
    67    29    64   1
    68    31    65   1
    69    34    66   1
    70    34    67   1
    71    35    68   1
    72    35    69   1
    73    36    70   1
    74    36    71   1
    75    37    72   1
    76    38    73   1
    77    38    74   1
    78    40    75   1
    79    41    76   1
    80    44    77   1
    81    44    78   1
    82    45    79   1
    83    45    80   1
    84    46    81   1
    85    47    82   1
@<TRIPOS>SUBSTRUCTURE
     1  MOL      2

