@<TRIPOS>MOLECULE
3utu_ligand_043
    82    85
SMALL
GAST_HUCK
****
This file was generated by PARSER (from files_GN.cpp)

@<TRIPOS>ATOM
      1 S8         19.9165  -17.6408   24.2941 S.o2        1 MOL       0.0657
      2 CL         22.2176  -13.6526   27.0530 Cl          1 MOL      -0.0788
      3 C35        21.2529  -16.5425   24.4818 C.ar        1 MOL       0.0977
      4 C10        24.5720  -12.7960   24.2703 C.3         1 MOL       0.0596
      5 O9         24.5139  -13.9699   25.1027 O.3         1 MOL      -0.3203
      6 C5         23.4205  -14.7657   24.8918 C.ar        1 MOL       0.1052
      7 O1         20.0297  -18.5926   23.0234 O.2         1 MOL      -0.1516
      8 O10        19.9385  -18.6371   25.5319 O.2         1 MOL      -0.1516
      9 C7         22.3937  -16.6139   23.6563 C.ar        1 MOL      -0.0438
     10 C3         21.2084  -15.5929   25.5215 C.ar        1 MOL      -0.0300
     11 C6         23.4699  -15.7331   23.8668 C.ar        1 MOL      -0.0306
     12 C4         22.2896  -14.7183   25.7379 C.ar        1 MOL       0.0696
     13 C13        17.7744  -14.9955   23.0850 C.2         1 MOL       0.2048
     14 N11        18.4066  -16.8862   24.3678 N.am        1 MOL      -0.2244
     15 O14        17.1357  -14.3360   23.9016 O.2         1 MOL      -0.3945
     16 C15        14.9981  -16.4187   19.8089 C.3         1 MOL       0.0687
     17 C31        15.8417  -16.8235   18.6517 C.ar        1 MOL      -0.0116
     18 C32        15.9323  -16.0072   17.4990 C.ar        1 MOL      -0.0467
     19 C33        16.7081  -16.3974   16.3917 C.ar        1 MOL      -0.0334
     20 C44        17.4165  -17.6177   16.4174 C.ar        1 MOL       0.0883
     21 C8         17.3296  -18.4456   17.5571 C.ar        1 MOL      -0.0334
     22 C9         16.5417  -18.0549   18.6561 C.ar        1 MOL      -0.0467
     23 C40        18.1408  -17.9778   15.3943 C.1         1 MOL       0.0934
     24 N63        18.7717  -18.2973   14.4881 N.1         1 MOL      -0.3338
     25 C45        17.6730  -16.4566   23.2204 C.3         1 MOL       0.1430
     26 C12        16.2006  -16.9630   23.3605 C.3         1 MOL       0.0742
     27 C46        15.2977  -16.7544   22.2349 C.2         1 MOL       0.1821
     28 O22        14.1090  -16.9926   22.4238 O.2         1 MOL      -0.3967
     29 N14        15.7488  -16.4369   21.0269 N.am        1 MOL      -0.2739
     30 N15        18.4599  -14.3388   22.1288 N.am        1 MOL      -0.2500
     31 C16        18.3572  -12.9108   21.9198 C.3         1 MOL       0.1338
     32 C17        17.1388  -12.5306   21.2059 C.2         1 MOL       0.2037
     33 O18        16.5147  -13.3778   20.5778 O.2         1 MOL      -0.3944
     34 C34        19.6345  -12.5545   21.1271 C.3         1 MOL      -0.0104
     35 C1         19.9194  -13.8230   20.3165 C.3         1 MOL      -0.0281
     36 C2         19.3886  -14.9529   21.2180 C.3         1 MOL       0.0369
     37 N19        16.7423  -11.2646   21.2165 N.am        1 MOL      -0.2737
     38 C20        15.5827  -10.7295   20.5757 C.3         1 MOL       0.0645
     39 C21        14.4505  -10.7157   21.5324 C.ar        1 MOL      -0.0210
     40 C26        13.8782  -11.9308   21.9725 C.ar        1 MOL      -0.0584
     41 C25        12.8178  -11.9383   22.8979 C.ar        1 MOL      -0.0633
     42 C24        12.2782  -10.7333   23.4265 C.ar        1 MOL       0.0188
     43 C27        11.1997  -10.7412   24.3320 C.cat       1 MOL       0.2318
     44 N29        10.6785   -9.6724   24.8020 N.pl3       1 MOL      -0.2729
     45 N28        10.6434  -11.8121   24.7557 N.pl3       1 MOL      -0.2729
     46 C23        12.8661   -9.5210   22.9694 C.ar        1 MOL      -0.0633
     47 C22        13.9263   -9.5101   22.0443 C.ar        1 MOL      -0.0584
     48 H1         25.5335  -12.3112   24.4560 H           1 MOL       0.0578
     49 H2         23.7697  -12.0953   24.5331 H           1 MOL       0.0578
     50 H3         24.5095  -13.0507   23.2070 H           1 MOL       0.0578
     51 H4         22.4618  -17.3140   22.9144 H           1 MOL       0.0610
     52 H5         20.3936  -15.5553   26.1434 H           1 MOL       0.0614
     53 H6         24.3063  -15.8051   23.2805 H           1 MOL       0.0542
     54 H7         18.0526  -16.6768   25.2468 H           1 MOL       0.1706
     55 H8         14.1440  -17.1009   19.8597 H           1 MOL       0.0704
     56 H9         14.6127  -15.4050   19.6770 H           1 MOL       0.0704
     57 H10        15.4196  -15.1227   17.4508 H           1 MOL       0.0584
     58 H11        16.7473  -15.7853   15.5713 H           1 MOL       0.0701
     59 H12        17.8346  -19.3360   17.5991 H           1 MOL       0.0701
     60 H13        16.4889  -18.6733   19.4695 H           1 MOL       0.0584
     61 H14        18.0800  -16.9571   22.3424 H           1 MOL       0.0779
     62 H15        15.7562  -16.5064   24.2499 H           1 MOL       0.0547
     63 H16        16.2277  -18.0418   23.5461 H           1 MOL       0.0547
     64 H17        16.6929  -16.2374   20.9486 H           1 MOL       0.1881
     65 H18        18.4033  -12.3837   22.8805 H           1 MOL       0.0802
     66 H19        20.4645  -12.3725   21.8175 H           1 MOL       0.0313
     67 H20        19.5204  -11.6748   20.4853 H           1 MOL       0.0313
     68 H21        20.9850  -13.9329   20.0970 H           1 MOL       0.0287
     69 H22        19.3634  -13.7912   19.3749 H           1 MOL       0.0287
     70 H23        18.9126  -15.7140   20.5941 H           1 MOL       0.0524
     71 H24        20.2141  -15.4047   21.7773 H           1 MOL       0.0524
     72 H25        17.2623  -10.6334   21.7389 H           1 MOL       0.1878
     73 H26        15.2997  -11.2880   19.6794 H           1 MOL       0.0683
     74 H27        15.8321   -9.7200   20.2477 H           1 MOL       0.0683
     75 H28        14.2267  -12.8284   21.6174 H           1 MOL       0.0557
     76 H29        12.4441  -12.8512   23.1755 H           1 MOL       0.0599
     77 H30         9.9528   -9.7287   25.3844 H           1 MOL       0.3180
     78 H31        10.9961   -8.8313   24.5564 H           1 MOL       0.3180
     79 H32        10.9322  -12.6574   24.4813 H           1 MOL       0.3180
     80 H33         9.9186  -11.7521   25.3409 H           1 MOL       0.3180
     81 H34        12.5360   -8.6144   23.3074 H           1 MOL       0.0599
     82 H35        14.3204   -8.6125   21.7512 H           1 MOL       0.0557
@<TRIPOS>BOND
     1     1     3   1
     2     1     7   2
     3     1     8   2
     4    14     1  am
     5    12     2   1
     6     3     9  ar
     7     3    10  ar
     8     5     4   1
     9     6     5   1
    10    11     6  ar
    11    12     6  ar
    12     9    11  ar
    13    10    12  ar
    14    13    15   2
    15    25    13   1
    16    13    30  am
    17    25    14   1
    18    16    17   1
    19    29    16   1
    20    17    18  ar
    21    17    22  ar
    22    18    19  ar
    23    19    20  ar
    24    21    20  ar
    25    20    23   1
    26    22    21  ar
    27    23    24   3
    28    26    25   1
    29    27    26   1
    30    27    28   2
    31    27    29  am
    32    30    31   1
    33    30    36   1
    34    31    32   1
    35    31    34   1
    36    32    33   2
    37    32    37  am
    38    34    35   1
    39    35    36   1
    40    37    38   1
    41    38    39   1
    42    39    40  ar
    43    39    47  ar
    44    40    41  ar
    45    41    42  ar
    46    42    43   1
    47    42    46  ar
    48    43    44  ar
    49    43    45  ar
    50    46    47  ar
    51     4    48   1
    52     4    49   1
    53     4    50   1
    54     9    51   1
    55    10    52   1
    56    11    53   1
    57    14    54   1
    58    16    55   1
    59    16    56   1
    60    18    57   1
    61    19    58   1
    62    21    59   1
    63    22    60   1
    64    25    61   1
    65    26    62   1
    66    26    63   1
    67    29    64   1
    68    31    65   1
    69    34    66   1
    70    34    67   1
    71    35    68   1
    72    35    69   1
    73    36    70   1
    74    36    71   1
    75    37    72   1
    76    38    73   1
    77    38    74   1
    78    40    75   1
    79    41    76   1
    80    44    77   1
    81    44    78   1
    82    45    79   1
    83    45    80   1
    84    46    81   1
    85    47    82   1
@<TRIPOS>SUBSTRUCTURE
     1  MOL      2

