@<TRIPOS>MOLECULE
3utu_ligand_041
    82    85
SMALL
GAST_HUCK
****
This file was generated by PARSER (from files_GN.cpp)

@<TRIPOS>ATOM
      1 S8         20.0966  -16.9557   24.3172 S.o2        1 MOL       0.0657
      2 CL         19.1765  -20.4818   20.3568 Cl          1 MOL      -0.0788
      3 C35        20.6880  -17.8171   22.9151 C.ar        1 MOL       0.0977
      4 C10        22.5042  -20.8589   19.4325 C.3         1 MOL       0.0596
      5 O9         21.8761  -19.5721   19.2831 O.3         1 MOL      -0.3203
      6 C5         21.4774  -19.0247   20.4736 C.ar        1 MOL       0.1052
      7 O1         20.4100  -17.9009   25.5582 O.2         1 MOL      -0.1516
      8 O10        20.8718  -15.5910   24.5670 O.2         1 MOL      -0.1516
      9 C7         21.8946  -17.4408   22.2883 C.ar        1 MOL      -0.0438
     10 C3         19.8971  -18.8274   22.3230 C.ar        1 MOL      -0.0300
     11 C6         22.2865  -18.0412   21.0783 C.ar        1 MOL      -0.0306
     12 C4         20.2587  -19.3976   21.0872 C.ar        1 MOL       0.0696
     13 C13        17.6450  -14.9187   22.9764 C.2         1 MOL       0.2048
     14 N11        18.4357  -16.6497   24.3571 N.am        1 MOL      -0.2244
     15 O14        16.9614  -14.2519   23.7493 O.2         1 MOL      -0.3945
     16 C15        14.7208  -20.4579   23.7791 C.3         1 MOL       0.0687
     17 C31        13.7084  -20.5784   24.8653 C.ar        1 MOL      -0.0116
     18 C32        13.4568  -19.5394   25.7962 C.ar        1 MOL      -0.0467
     19 C33        12.5240  -19.7049   26.8403 C.ar        1 MOL      -0.0334
     20 C44        11.8250  -20.9228   26.9814 C.ar        1 MOL       0.0883
     21 C8         12.0753  -21.9681   26.0706 C.ar        1 MOL      -0.0334
     22 C9         13.0137  -21.7987   25.0347 C.ar        1 MOL      -0.0467
     23 C40        10.9568  -21.0730   27.9391 C.1         1 MOL       0.0934
     24 N63        10.1871  -21.2070   28.7799 N.1         1 MOL      -0.3338
     25 C45        17.6289  -16.3696   23.2026 C.3         1 MOL       0.1430
     26 C12        16.1927  -16.9900   23.3572 C.3         1 MOL       0.0742
     27 C46        16.1072  -18.4117   23.7127 C.2         1 MOL       0.1821
     28 O22        16.8845  -18.8615   24.5454 O.2         1 MOL      -0.3967
     29 N14        15.0344  -19.1170   23.3653 N.am        1 MOL      -0.2739
     30 N15        18.3827  -14.2776   22.0452 N.am        1 MOL      -0.2500
     31 C16        18.3233  -12.8505   21.8372 C.3         1 MOL       0.1338
     32 C17        17.1257  -12.4460   21.1066 C.2         1 MOL       0.2037
     33 O18        16.5204  -13.2699   20.4287 O.2         1 MOL      -0.3944
     34 C34        19.6222  -12.5106   21.0690 C.3         1 MOL      -0.0104
     35 C1         19.9107  -13.7840   20.2709 C.3         1 MOL      -0.0281
     36 C2         19.3475  -14.8939   21.1731 C.3         1 MOL       0.0369
     37 N19        16.7221  -11.1836   21.1602 N.am        1 MOL      -0.2737
     38 C20        15.5427  -10.6436   20.5621 C.3         1 MOL       0.0645
     39 C21        14.4342  -10.6570   21.5464 C.ar        1 MOL      -0.0210
     40 C26        13.9196   -9.4620   22.0935 C.ar        1 MOL      -0.0584
     41 C25        12.8666   -9.4943   23.0278 C.ar        1 MOL      -0.0633
     42 C24        12.2780  -10.7170   23.4532 C.ar        1 MOL       0.0188
     43 C27        11.1968  -10.7479   24.3622 C.cat       1 MOL       0.2318
     44 N29        10.7190   -9.6935   24.9025 N.pl3       1 MOL      -0.2729
     45 N28        10.6011  -11.8223   24.7121 N.pl3       1 MOL      -0.2729
     46 C23        12.8158  -11.9085   22.9001 C.ar        1 MOL      -0.0633
     47 C22        13.8681  -11.8798   21.9678 C.ar        1 MOL      -0.0584
     48 H1         22.7873  -21.2150   18.4421 H           1 MOL       0.0578
     49 H2         21.8215  -21.5951   19.8677 H           1 MOL       0.0578
     50 H3         23.4029  -20.7920   20.0500 H           1 MOL       0.0578
     51 H4         22.4822  -16.7057   22.6911 H           1 MOL       0.0610
     52 H5         19.0210  -19.1164   22.7629 H           1 MOL       0.0614
     53 H6         23.1563  -17.7493   20.6263 H           1 MOL       0.0542
     54 H7         18.0392  -16.5006   25.2320 H           1 MOL       0.1706
     55 H8         14.3365  -20.9502   22.8866 H           1 MOL       0.0704
     56 H9         15.6127  -21.0088   24.0862 H           1 MOL       0.0704
     57 H10        13.9632  -18.6535   25.7360 H           1 MOL       0.0584
     58 H11        12.3721  -18.9302   27.4941 H           1 MOL       0.0701
     59 H12        11.5812  -22.8627   26.1505 H           1 MOL       0.0701
     60 H13        13.1874  -22.5822   24.3965 H           1 MOL       0.0584
     61 H14        18.0315  -16.8541   22.3199 H           1 MOL       0.0779
     62 H15        15.6578  -16.8315   22.4110 H           1 MOL       0.0547
     63 H16        15.6442  -16.4441   24.1290 H           1 MOL       0.0547
     64 H17        14.3808  -18.6677   22.8039 H           1 MOL       0.1881
     65 H18        18.3585  -12.3310   22.8012 H           1 MOL       0.0802
     66 H19        20.4390  -12.3297   21.7758 H           1 MOL       0.0313
     67 H20        19.5301  -11.6399   20.4154 H           1 MOL       0.0313
     68 H21        20.9811  -13.9124   20.0803 H           1 MOL       0.0287
     69 H22        19.3737  -13.7624   19.3191 H           1 MOL       0.0287
     70 H23        18.9132  -15.6901   20.5559 H           1 MOL       0.0524
     71 H24        20.1711  -15.2901   21.7631 H           1 MOL       0.0524
     72 H25        17.2304  -10.5718   21.7149 H           1 MOL       0.1878
     73 H26        15.2467  -11.1894   19.6627 H           1 MOL       0.0683
     74 H27        15.7782   -9.6262   20.2456 H           1 MOL       0.0683
     75 H28        14.3115   -8.5568   21.8240 H           1 MOL       0.0557
     76 H29        12.5365   -8.5944   23.3858 H           1 MOL       0.0599
     77 H30         9.9877   -9.7570   25.4826 H           1 MOL       0.3180
     78 H31        11.0761   -8.8494   24.7201 H           1 MOL       0.3180
     79 H32        10.8560  -12.6587   24.3809 H           1 MOL       0.3180
     80 H33         9.8808  -11.7750   25.3070 H           1 MOL       0.3180
     81 H34        12.4486  -12.8287   23.1598 H           1 MOL       0.0599
     82 H35        14.2095  -12.7658   21.5884 H           1 MOL       0.0557
@<TRIPOS>BOND
     1     1     3   1
     2     1     7   2
     3     1     8   2
     4    14     1  am
     5    12     2   1
     6     3     9  ar
     7     3    10  ar
     8     5     4   1
     9     6     5   1
    10    11     6  ar
    11    12     6  ar
    12     9    11  ar
    13    10    12  ar
    14    13    15   2
    15    25    13   1
    16    13    30  am
    17    25    14   1
    18    16    17   1
    19    29    16   1
    20    17    18  ar
    21    17    22  ar
    22    18    19  ar
    23    19    20  ar
    24    21    20  ar
    25    20    23   1
    26    22    21  ar
    27    23    24   3
    28    26    25   1
    29    27    26   1
    30    27    28   2
    31    27    29  am
    32    30    31   1
    33    30    36   1
    34    31    32   1
    35    31    34   1
    36    32    33   2
    37    32    37  am
    38    34    35   1
    39    35    36   1
    40    37    38   1
    41    38    39   1
    42    39    40  ar
    43    39    47  ar
    44    40    41  ar
    45    41    42  ar
    46    42    43   1
    47    42    46  ar
    48    43    44  ar
    49    43    45  ar
    50    46    47  ar
    51     4    48   1
    52     4    49   1
    53     4    50   1
    54     9    51   1
    55    10    52   1
    56    11    53   1
    57    14    54   1
    58    16    55   1
    59    16    56   1
    60    18    57   1
    61    19    58   1
    62    21    59   1
    63    22    60   1
    64    25    61   1
    65    26    62   1
    66    26    63   1
    67    29    64   1
    68    31    65   1
    69    34    66   1
    70    34    67   1
    71    35    68   1
    72    35    69   1
    73    36    70   1
    74    36    71   1
    75    37    72   1
    76    38    73   1
    77    38    74   1
    78    40    75   1
    79    41    76   1
    80    44    77   1
    81    44    78   1
    82    45    79   1
    83    45    80   1
    84    46    81   1
    85    47    82   1
@<TRIPOS>SUBSTRUCTURE
     1  MOL      2

