@<TRIPOS>MOLECULE
3utu_ligand_060
    82    85
SMALL
GAST_HUCK
****
This file was generated by PARSER (from files_GN.cpp)

@<TRIPOS>ATOM
      1 S8         16.3606  -17.5816   23.7053 S.o2        1 MOL       0.0657
      2 CL         19.7482  -13.4175   23.2198 Cl          1 MOL      -0.0788
      3 C35        17.2955  -16.3130   24.4591 C.ar        1 MOL       0.0977
      4 C10        20.1110  -13.0793   27.2252 C.3         1 MOL       0.0596
      5 O9         19.2312  -12.9523   26.0977 O.3         1 MOL      -0.3203
      6 C5         18.6615  -14.1022   25.6057 C.ar        1 MOL       0.1052
      7 O1         17.2871  -18.2862   22.6181 O.2         1 MOL      -0.1516
      8 O10        15.8839  -18.6816   24.7564 O.2         1 MOL      -0.1516
      9 C7         17.1737  -16.0400   25.8390 C.ar        1 MOL      -0.0438
     10 C3         18.1321  -15.4993   23.6676 C.ar        1 MOL      -0.0300
     11 C6         17.8570  -14.9468   26.4059 C.ar        1 MOL      -0.0306
     12 C4         18.7953  -14.3899   24.2286 C.ar        1 MOL       0.0696
     13 C13        15.3828  -16.1459   20.6961 C.2         1 MOL       0.2048
     14 N11        15.0043  -16.9000   22.9684 N.am        1 MOL      -0.2244
     15 O14        16.0640  -15.2801   21.2341 O.2         1 MOL      -0.3945
     16 C15        11.1289  -19.3718   19.3364 C.3         1 MOL       0.0687
     17 C31        10.4543  -19.0919   18.0348 C.ar        1 MOL      -0.0116
     18 C32        11.0424  -18.2391   17.0694 C.ar        1 MOL      -0.0467
     19 C33        10.4170  -17.9957   15.8331 C.ar        1 MOL      -0.0334
     20 C44         9.2018  -18.6374   15.5166 C.ar        1 MOL       0.0883
     21 C8          8.6149  -19.5088   16.4582 C.ar        1 MOL      -0.0334
     22 C9          9.2352  -19.7301   17.7034 C.ar        1 MOL      -0.0467
     23 C40         8.6408  -18.4444   14.3577 C.1         1 MOL       0.0934
     24 N63         8.1517  -18.2762   13.3334 N.1         1 MOL      -0.3338
     25 C45        14.6418  -17.0731   21.5817 C.3         1 MOL       0.1430
     26 C12        13.0718  -16.9500   21.4848 C.3         1 MOL       0.0742
     27 C46        12.3911  -18.1711   21.0701 C.2         1 MOL       0.1821
     28 O22        12.5487  -19.1800   21.7465 O.2         1 MOL      -0.3967
     29 N14        11.6372  -18.1939   19.9757 N.am        1 MOL      -0.2739
     30 N15        15.4196  -16.2024   19.3476 N.am        1 MOL      -0.2500
     31 C16        16.2574  -15.3439   18.5253 C.3         1 MOL       0.1338
     32 C17        15.8879  -13.9280   18.4634 C.2         1 MOL       0.2037
     33 O18        16.6462  -13.1673   17.8743 O.2         1 MOL      -0.3944
     34 C34        16.2678  -16.0180   17.1252 C.3         1 MOL      -0.0104
     35 C1         14.9524  -16.7964   17.0855 C.3         1 MOL      -0.0281
     36 C2         14.7274  -17.1766   18.5584 C.3         1 MOL       0.0369
     37 N19        14.8419  -13.4486   19.1224 N.am        1 MOL      -0.2737
     38 C20        14.5693  -12.0629   19.3628 C.3         1 MOL       0.0645
     39 C21        13.5593  -11.8483   20.4358 C.ar        1 MOL      -0.0210
     40 C26        13.5263  -12.6624   21.5918 C.ar        1 MOL      -0.0584
     41 C25        12.6243  -12.4050   22.6380 C.ar        1 MOL      -0.0633
     42 C24        11.7441  -11.2936   22.5940 C.ar        1 MOL       0.0188
     43 C27        10.8711  -11.0221   23.6546 C.cat       1 MOL       0.2318
     44 N29        10.4159  -11.9409   24.4196 N.pl3       1 MOL      -0.2729
     45 N28        10.4710   -9.8370   23.9346 N.pl3       1 MOL      -0.2729
     46 C23        11.7974  -10.4658   21.4411 C.ar        1 MOL      -0.0633
     47 C22        12.6837  -10.7404   20.3829 C.ar        1 MOL      -0.0584
     48 H1         20.6477  -12.1370   27.3424 H           1 MOL       0.0578
     49 H2         20.8445  -13.8767   27.0760 H           1 MOL       0.0578
     50 H3         19.5357  -13.2687   28.1376 H           1 MOL       0.0578
     51 H4         16.5786  -16.6271   26.4372 H           1 MOL       0.0610
     52 H5         18.2371  -15.6935   22.6679 H           1 MOL       0.0614
     53 H6         17.7448  -14.7614   27.4047 H           1 MOL       0.0542
     54 H7         14.6230  -16.1288   23.4247 H           1 MOL       0.1706
     55 H8         11.9612  -20.0521   19.1337 H           1 MOL       0.0704
     56 H9         10.4443  -19.8722   20.0285 H           1 MOL       0.0704
     57 H10        11.9314  -17.7761   17.2635 H           1 MOL       0.0584
     58 H11        10.8637  -17.3556   15.1691 H           1 MOL       0.0701
     59 H12         7.7362  -19.9912   16.2518 H           1 MOL       0.0701
     60 H13         8.7926  -20.3733   18.3649 H           1 MOL       0.0584
     61 H14        14.9475  -18.0900   21.3012 H           1 MOL       0.0779
     62 H15        12.8068  -16.1308   20.8124 H           1 MOL       0.0547
     63 H16        12.6361  -16.6659   22.4430 H           1 MOL       0.0547
     64 H17        11.4961  -17.3504   19.5181 H           1 MOL       0.1881
     65 H18        17.2772  -15.3878   18.9234 H           1 MOL       0.0802
     66 H19        17.1017  -16.7270   17.0621 H           1 MOL       0.0313
     67 H20        16.3439  -15.3134   16.2899 H           1 MOL       0.0313
     68 H21        15.0192  -17.6765   16.4383 H           1 MOL       0.0287
     69 H22        14.1478  -16.1420   16.7302 H           1 MOL       0.0287
     70 H23        13.6622  -17.1513   18.7571 H           1 MOL       0.0524
     71 H24        15.1202  -18.1789   18.7598 H           1 MOL       0.0524
     72 H25        14.2589  -14.0891   19.5578 H           1 MOL       0.1878
     73 H26        14.2432  -11.6088   18.4212 H           1 MOL       0.0683
     74 H27        15.4830  -11.5598   19.6852 H           1 MOL       0.0683
     75 H28        14.1674  -13.4503   21.6876 H           1 MOL       0.0557
     76 H29        12.6442  -13.0251   23.4492 H           1 MOL       0.0599
     77 H30         9.8188  -11.7282   25.1058 H           1 MOL       0.3180
     78 H31        10.6467  -12.8358   24.2777 H           1 MOL       0.3180
     79 H32        10.7665   -9.1042   23.4337 H           1 MOL       0.3180
     80 H33         9.8896   -9.6974   24.6545 H           1 MOL       0.3180
     81 H34        11.1787   -9.6579   21.3520 H           1 MOL       0.0599
     82 H35        12.6990  -10.1139   19.5746 H           1 MOL       0.0557
@<TRIPOS>BOND
     1     1     3   1
     2     1     7   2
     3     1     8   2
     4    14     1  am
     5    12     2   1
     6     3     9  ar
     7     3    10  ar
     8     5     4   1
     9     6     5   1
    10    11     6  ar
    11    12     6  ar
    12     9    11  ar
    13    10    12  ar
    14    13    15   2
    15    25    13   1
    16    13    30  am
    17    25    14   1
    18    16    17   1
    19    29    16   1
    20    17    18  ar
    21    17    22  ar
    22    18    19  ar
    23    19    20  ar
    24    21    20  ar
    25    20    23   1
    26    22    21  ar
    27    23    24   3
    28    26    25   1
    29    27    26   1
    30    27    28   2
    31    27    29  am
    32    30    31   1
    33    30    36   1
    34    31    32   1
    35    31    34   1
    36    32    33   2
    37    32    37  am
    38    34    35   1
    39    35    36   1
    40    37    38   1
    41    38    39   1
    42    39    40  ar
    43    39    47  ar
    44    40    41  ar
    45    41    42  ar
    46    42    43   1
    47    42    46  ar
    48    43    44  ar
    49    43    45  ar
    50    46    47  ar
    51     4    48   1
    52     4    49   1
    53     4    50   1
    54     9    51   1
    55    10    52   1
    56    11    53   1
    57    14    54   1
    58    16    55   1
    59    16    56   1
    60    18    57   1
    61    19    58   1
    62    21    59   1
    63    22    60   1
    64    25    61   1
    65    26    62   1
    66    26    63   1
    67    29    64   1
    68    31    65   1
    69    34    66   1
    70    34    67   1
    71    35    68   1
    72    35    69   1
    73    36    70   1
    74    36    71   1
    75    37    72   1
    76    38    73   1
    77    38    74   1
    78    40    75   1
    79    41    76   1
    80    44    77   1
    81    44    78   1
    82    45    79   1
    83    45    80   1
    84    46    81   1
    85    47    82   1
@<TRIPOS>SUBSTRUCTURE
     1  MOL      2

