@<TRIPOS>MOLECULE
3utu_ligand_026
    82    85
SMALL
GAST_HUCK
****
This file was generated by PARSER (from files_GN.cpp)

@<TRIPOS>ATOM
      1 S8         17.9125  -15.8932   25.0156 S.o2        1 MOL       0.0657
      2 CL         20.8429  -11.4516   25.9977 Cl          1 MOL      -0.0788
      3 C35        19.3549  -14.9483   24.7760 C.ar        1 MOL       0.0977
      4 C10        23.9753  -13.0855   24.6180 C.3         1 MOL       0.0596
      5 O9         22.7607  -12.6126   24.0072 O.3         1 MOL      -0.3203
      6 C5         21.6605  -13.3841   24.2818 C.ar        1 MOL       0.1052
      7 O1         18.2159  -17.4497   25.1602 O.2         1 MOL      -0.1516
      8 O10        17.1861  -15.4302   26.3525 O.2         1 MOL      -0.1516
      9 C7         20.3478  -15.4049   23.8841 C.ar        1 MOL      -0.0438
     10 C3         19.5208  -13.7031   25.4168 C.ar        1 MOL      -0.0300
     11 C6         21.4840  -14.6230   23.6319 C.ar        1 MOL      -0.0306
     12 C4         20.6703  -12.9267   25.1836 C.ar        1 MOL       0.0696
     13 C13        17.4788  -14.0482   22.1733 C.2         1 MOL       0.2048
     14 N11        16.7837  -15.6607   23.7860 N.am        1 MOL      -0.2244
     15 O14        16.8301  -13.2248   22.8145 O.2         1 MOL      -0.3945
     16 C15        15.6296  -16.1636   17.7985 C.3         1 MOL       0.0687
     17 C31        15.2107  -15.0504   16.9066 C.ar        1 MOL      -0.0116
     18 C32        14.6913  -15.3449   15.6256 C.ar        1 MOL      -0.0467
     19 C33        14.2902  -14.3123   14.7606 C.ar        1 MOL      -0.0334
     20 C44        14.4128  -12.9639   15.1565 C.ar        1 MOL       0.0883
     21 C8         14.9575  -12.6597   16.4221 C.ar        1 MOL      -0.0334
     22 C9         15.3669  -13.6941   17.2818 C.ar        1 MOL      -0.0467
     23 C40        14.0407  -12.0073   14.3557 C.1         1 MOL       0.0934
     24 N63        13.7140  -11.1624   13.6494 N.1         1 MOL      -0.3338
     25 C45        17.1298  -15.4594   22.4083 C.3         1 MOL       0.1430
     26 C12        15.9177  -15.9491   21.5514 C.3         1 MOL       0.0742
     27 C46        16.2438  -16.2603   20.1742 C.2         1 MOL       0.1821
     28 O22        17.2384  -16.9462   19.9532 O.2         1 MOL      -0.3967
     29 N14        15.4476  -15.8623   19.1818 N.am        1 MOL      -0.2739
     30 N15        18.4636  -13.5867   21.3716 N.am        1 MOL      -0.2500
     31 C16        18.8636  -12.1968   21.2918 C.3         1 MOL       0.1338
     32 C17        17.8948  -11.3963   20.5336 C.2         1 MOL       0.2037
     33 O18        18.0817  -11.1364   19.3477 O.2         1 MOL      -0.3944
     34 C34        20.2877  -12.2451   20.6788 C.3         1 MOL      -0.0104
     35 C1         20.2422  -13.4897   19.7878 C.3         1 MOL      -0.0281
     36 C2         19.2711  -14.4249   20.5317 C.3         1 MOL       0.0369
     37 N19        16.7635  -11.0484   21.1237 N.am        1 MOL      -0.2737
     38 C20        15.6368  -10.4118   20.5240 C.3         1 MOL       0.0645
     39 C21        14.5012  -10.4569   21.4804 C.ar        1 MOL      -0.0210
     40 C26        13.9759  -11.7026   21.8925 C.ar        1 MOL      -0.0584
     41 C25        12.9152  -11.7685   22.8119 C.ar        1 MOL      -0.0633
     42 C24        12.3233  -10.5965   23.3526 C.ar        1 MOL       0.0188
     43 C27        11.2385  -10.6612   24.2532 C.cat       1 MOL       0.2318
     44 N29        10.7138   -9.6265   24.7842 N.pl3       1 MOL      -0.2729
     45 N28        10.6769  -11.7596   24.6075 N.pl3       1 MOL      -0.2729
     46 C23        12.8646   -9.3527   22.9252 C.ar        1 MOL      -0.0633
     47 C22        13.9286   -9.2807   22.0089 C.ar        1 MOL      -0.0584
     48 H1         24.7589  -12.3552   24.4324 H           1 MOL       0.0578
     49 H2         24.2910  -14.0371   24.1849 H           1 MOL       0.0578
     50 H3         23.8626  -13.1949   25.6971 H           1 MOL       0.0578
     51 H4         20.2389  -16.2956   23.3973 H           1 MOL       0.0610
     52 H5         18.8030  -13.3572   26.0575 H           1 MOL       0.0614
     53 H6         22.1875  -14.9567   22.9681 H           1 MOL       0.0542
     54 H7         15.8842  -15.4233   24.0540 H           1 MOL       0.1706
     55 H8         16.6697  -16.3969   17.5758 H           1 MOL       0.0704
     56 H9         15.0442  -17.0615   17.5903 H           1 MOL       0.0704
     57 H10        14.5991  -16.3179   15.3165 H           1 MOL       0.0584
     58 H11        13.9099  -14.5569   13.8422 H           1 MOL       0.0701
     59 H12        15.0681  -11.6917   16.7272 H           1 MOL       0.0701
     60 H13        15.7696  -13.4491   18.1934 H           1 MOL       0.0584
     61 H14        17.9835  -16.1140   22.1920 H           1 MOL       0.0779
     62 H15        15.1074  -15.2188   21.6118 H           1 MOL       0.0547
     63 H16        15.5285  -16.8692   21.9855 H           1 MOL       0.0547
     64 H17        14.6298  -15.3946   19.4311 H           1 MOL       0.1881
     65 H18        18.9766  -11.7731   22.2975 H           1 MOL       0.0802
     66 H19        21.0304  -12.3924   21.4662 H           1 MOL       0.0313
     67 H20        20.5514  -11.3433   20.1127 H           1 MOL       0.0313
     68 H21        21.2301  -13.9393   19.6646 H           1 MOL       0.0287
     69 H22        19.8462  -13.2275   18.8018 H           1 MOL       0.0287
     70 H23        18.6547  -14.9650   19.8153 H           1 MOL       0.0524
     71 H24        19.8476  -15.1415   21.1214 H           1 MOL       0.0524
     72 H25        16.6755  -11.2950   22.0571 H           1 MOL       0.1878
     73 H26        15.3455  -10.9308   19.6067 H           1 MOL       0.0683
     74 H27        15.9149   -9.3881   20.2619 H           1 MOL       0.0683
     75 H28        14.3727  -12.5735   21.5273 H           1 MOL       0.0557
     76 H29        12.5847  -12.6979   23.0798 H           1 MOL       0.0599
     77 H30         9.9800   -9.7141   25.3586 H           1 MOL       0.3180
     78 H31        11.0383   -8.7715   24.5992 H           1 MOL       0.3180
     79 H32        10.9661  -12.5880   24.2879 H           1 MOL       0.3180
     80 H33         9.9483  -11.7333   25.1947 H           1 MOL       0.3180
     81 H34        12.4877   -8.4671   23.2659 H           1 MOL       0.0599
     82 H35        14.2901   -8.3637   21.7324 H           1 MOL       0.0557
@<TRIPOS>BOND
     1     1     3   1
     2     1     7   2
     3     1     8   2
     4    14     1  am
     5    12     2   1
     6     3     9  ar
     7     3    10  ar
     8     5     4   1
     9     6     5   1
    10    11     6  ar
    11    12     6  ar
    12     9    11  ar
    13    10    12  ar
    14    13    15   2
    15    25    13   1
    16    13    30  am
    17    25    14   1
    18    16    17   1
    19    29    16   1
    20    17    18  ar
    21    17    22  ar
    22    18    19  ar
    23    19    20  ar
    24    21    20  ar
    25    20    23   1
    26    22    21  ar
    27    23    24   3
    28    26    25   1
    29    27    26   1
    30    27    28   2
    31    27    29  am
    32    30    31   1
    33    30    36   1
    34    31    32   1
    35    31    34   1
    36    32    33   2
    37    32    37  am
    38    34    35   1
    39    35    36   1
    40    37    38   1
    41    38    39   1
    42    39    40  ar
    43    39    47  ar
    44    40    41  ar
    45    41    42  ar
    46    42    43   1
    47    42    46  ar
    48    43    44  ar
    49    43    45  ar
    50    46    47  ar
    51     4    48   1
    52     4    49   1
    53     4    50   1
    54     9    51   1
    55    10    52   1
    56    11    53   1
    57    14    54   1
    58    16    55   1
    59    16    56   1
    60    18    57   1
    61    19    58   1
    62    21    59   1
    63    22    60   1
    64    25    61   1
    65    26    62   1
    66    26    63   1
    67    29    64   1
    68    31    65   1
    69    34    66   1
    70    34    67   1
    71    35    68   1
    72    35    69   1
    73    36    70   1
    74    36    71   1
    75    37    72   1
    76    38    73   1
    77    38    74   1
    78    40    75   1
    79    41    76   1
    80    44    77   1
    81    44    78   1
    82    45    79   1
    83    45    80   1
    84    46    81   1
    85    47    82   1
@<TRIPOS>SUBSTRUCTURE
     1  MOL      2

