@<TRIPOS>MOLECULE
3utu_ligand_037
    82    85
SMALL
GAST_HUCK
****
This file was generated by PARSER (from files_GN.cpp)

@<TRIPOS>ATOM
      1 S8         17.5327  -15.0871   23.5895 S.o2        1 MOL       0.0657
      2 CL         22.5448  -15.8125   25.4214 Cl          1 MOL      -0.0788
      3 C35        19.2024  -14.6001   23.6095 C.ar        1 MOL       0.0977
      4 C10        23.6446  -12.6424   24.7196 C.3         1 MOL       0.0596
      5 O9         23.2520  -13.4807   23.6172 O.3         1 MOL      -0.3203
      6 C5         21.9332  -13.8500   23.6457 C.ar        1 MOL       0.1052
      7 O1         17.0906  -15.5843   25.0359 O.2         1 MOL      -0.1516
      8 O10        16.5921  -13.8507   23.2444 O.2         1 MOL      -0.1516
      9 C7         19.6648  -13.5615   22.7769 C.ar        1 MOL      -0.0438
     10 C3         20.1165  -15.2811   24.4384 C.ar        1 MOL      -0.0300
     11 C6         21.0214  -13.1903   22.7956 C.ar        1 MOL      -0.0306
     12 C4         21.4795  -14.9232   24.4516 C.ar        1 MOL       0.0696
     13 C13        16.4072  -15.7692   20.3349 C.2         1 MOL       0.2048
     14 N11        17.3042  -16.3877   22.5353 N.am        1 MOL      -0.2244
     15 O14        17.2377  -14.8676   20.3680 O.2         1 MOL      -0.3945
     16 C15        11.7564  -18.1836   20.9618 C.3         1 MOL       0.0687
     17 C31        11.9962  -19.6377   21.1739 C.ar        1 MOL      -0.0116
     18 C32        12.0366  -20.1541   22.4855 C.ar        1 MOL      -0.0467
     19 C33        12.4386  -21.4818   22.7264 C.ar        1 MOL      -0.0334
     20 C44        12.7590  -22.3309   21.6426 C.ar        1 MOL       0.0883
     21 C8         12.6755  -21.8357   20.3233 C.ar        1 MOL      -0.0334
     22 C9         12.3054  -20.4968   20.0920 C.ar        1 MOL      -0.0467
     23 C40        13.1537  -23.5521   21.8657 C.1         1 MOL       0.0934
     24 N63        13.5116  -24.6254   22.0650 N.1         1 MOL      -0.3338
     25 C45        16.2401  -16.5494   21.5803 C.3         1 MOL       0.1430
     26 C12        14.8370  -16.3860   22.2751 C.3         1 MOL       0.0742
     27 C46        13.9103  -17.4798   22.0472 C.2         1 MOL       0.1821
     28 O22        14.2467  -18.5827   22.4606 O.2         1 MOL      -0.3967
     29 N14        12.7491  -17.2594   21.4339 N.am        1 MOL      -0.2739
     30 N15        15.7678  -15.9867   19.1633 N.am        1 MOL      -0.2500
     31 C16        15.9718  -15.1945   17.9630 C.3         1 MOL       0.1338
     32 C17        15.7503  -13.7543   18.1094 C.2         1 MOL       0.2037
     33 O18        16.4853  -12.9903   17.4957 O.2         1 MOL      -0.3944
     34 C34        15.0408  -15.8017   16.8846 C.3         1 MOL      -0.0104
     35 C1         14.7616  -17.2185   17.3923 C.3         1 MOL      -0.0281
     36 C2         14.8370  -17.0508   18.9174 C.3         1 MOL       0.0369
     37 N19        14.8259  -13.2839   18.9417 N.am        1 MOL      -0.2737
     38 C20        14.6511  -11.8996   19.2882 C.3         1 MOL       0.0645
     39 C21        13.6644  -11.6881   20.3835 C.ar        1 MOL      -0.0210
     40 C26        12.7228  -10.6359   20.3389 C.ar        1 MOL      -0.0584
     41 C25        11.8345  -10.4109   21.4097 C.ar        1 MOL      -0.0633
     42 C24        11.8245  -11.2520   22.5522 C.ar        1 MOL       0.0188
     43 C27        10.9227  -11.0463   23.6060 C.cat       1 MOL       0.2318
     44 N29        10.5295   -9.8788   23.9482 N.pl3       1 MOL      -0.2729
     45 N28        10.4411  -12.0144   24.2885 N.pl3       1 MOL      -0.2729
     46 C23        12.7775  -12.3014   22.5915 C.ar        1 MOL      -0.0633
     47 C22        13.7074  -12.4825   21.5498 C.ar        1 MOL      -0.0584
     48 H1         24.6883  -12.3600   24.5759 H           1 MOL       0.0578
     49 H2         23.5661  -13.1744   25.6702 H           1 MOL       0.0578
     50 H3         23.0461  -11.7285   24.7663 H           1 MOL       0.0578
     51 H4         19.0229  -13.0708   22.1481 H           1 MOL       0.0610
     52 H5         19.7938  -16.0508   25.0303 H           1 MOL       0.0614
     53 H6         21.3480  -12.4375   22.1849 H           1 MOL       0.0542
     54 H7         17.8728  -17.1613   22.6885 H           1 MOL       0.1706
     55 H8         10.8041  -17.9163   21.4264 H           1 MOL       0.0704
     56 H9         11.6435  -17.9873   19.8911 H           1 MOL       0.0704
     57 H10        11.8271  -19.5500   23.2840 H           1 MOL       0.0584
     58 H11        12.5046  -21.8134   23.6946 H           1 MOL       0.0701
     59 H12        12.9131  -22.4313   19.5221 H           1 MOL       0.0701
     60 H13        12.2876  -20.1485   19.1317 H           1 MOL       0.0584
     61 H14        16.3635  -17.5940   21.2860 H           1 MOL       0.0779
     62 H15        14.3871  -15.4456   21.9645 H           1 MOL       0.0547
     63 H16        14.9474  -16.3174   23.3570 H           1 MOL       0.0547
     64 H17        12.5937  -16.3431   21.1588 H           1 MOL       0.1881
     65 H18        17.0013  -15.3713   17.6366 H           1 MOL       0.0802
     66 H19        15.5074  -15.8168   15.8962 H           1 MOL       0.0313
     67 H20        14.0926  -15.2658   16.8141 H           1 MOL       0.0313
     68 H21        15.5307  -17.9107   17.0384 H           1 MOL       0.0287
     69 H22        13.7785  -17.5836   17.0719 H           1 MOL       0.0287
     70 H23        13.8584  -16.7451   19.2816 H           1 MOL       0.0524
     71 H24        15.1194  -18.0028   19.3698 H           1 MOL       0.0524
     72 H25        14.2755  -13.9348   19.4072 H           1 MOL       0.1878
     73 H26        14.3625  -11.3496   18.3881 H           1 MOL       0.0683
     74 H27        15.6045  -11.4941   19.6368 H           1 MOL       0.0683
     75 H28        12.6924  -10.0070   19.5326 H           1 MOL       0.0557
     76 H29        11.1748   -9.6315   21.3317 H           1 MOL       0.0599
     77 H30         9.9283   -9.7731   24.6596 H           1 MOL       0.3180
     78 H31        10.8511   -9.1212   23.5051 H           1 MOL       0.3180
     79 H32        10.6725  -12.8971   24.0915 H           1 MOL       0.3180
     80 H33         9.8228  -11.8459   24.9712 H           1 MOL       0.3180
     81 H34        12.8304  -12.9279   23.3981 H           1 MOL       0.0599
     82 H35        14.4225  -13.2020   21.6470 H           1 MOL       0.0557
@<TRIPOS>BOND
     1     1     3   1
     2     1     7   2
     3     1     8   2
     4    14     1  am
     5    12     2   1
     6     3     9  ar
     7     3    10  ar
     8     5     4   1
     9     6     5   1
    10    11     6  ar
    11    12     6  ar
    12     9    11  ar
    13    10    12  ar
    14    13    15   2
    15    25    13   1
    16    13    30  am
    17    25    14   1
    18    16    17   1
    19    29    16   1
    20    17    18  ar
    21    17    22  ar
    22    18    19  ar
    23    19    20  ar
    24    21    20  ar
    25    20    23   1
    26    22    21  ar
    27    23    24   3
    28    26    25   1
    29    27    26   1
    30    27    28   2
    31    27    29  am
    32    30    31   1
    33    30    36   1
    34    31    32   1
    35    31    34   1
    36    32    33   2
    37    32    37  am
    38    34    35   1
    39    35    36   1
    40    37    38   1
    41    38    39   1
    42    39    40  ar
    43    39    47  ar
    44    40    41  ar
    45    41    42  ar
    46    42    43   1
    47    42    46  ar
    48    43    44  ar
    49    43    45  ar
    50    46    47  ar
    51     4    48   1
    52     4    49   1
    53     4    50   1
    54     9    51   1
    55    10    52   1
    56    11    53   1
    57    14    54   1
    58    16    55   1
    59    16    56   1
    60    18    57   1
    61    19    58   1
    62    21    59   1
    63    22    60   1
    64    25    61   1
    65    26    62   1
    66    26    63   1
    67    29    64   1
    68    31    65   1
    69    34    66   1
    70    34    67   1
    71    35    68   1
    72    35    69   1
    73    36    70   1
    74    36    71   1
    75    37    72   1
    76    38    73   1
    77    38    74   1
    78    40    75   1
    79    41    76   1
    80    44    77   1
    81    44    78   1
    82    45    79   1
    83    45    80   1
    84    46    81   1
    85    47    82   1
@<TRIPOS>SUBSTRUCTURE
     1  MOL      2

