@<TRIPOS>MOLECULE
3utu_ligand_018
    82    85
SMALL
GAST_HUCK
****
This file was generated by PARSER (from files_GN.cpp)

@<TRIPOS>ATOM
      1 S8         20.2896  -13.1266   26.4216 S.o2        1 MOL       0.0657
      2 CL         25.1218  -12.3120   24.1881 Cl          1 MOL      -0.0788
      3 C35        21.8467  -13.7512   25.9570 C.ar        1 MOL       0.0977
      4 C10        25.5771  -15.5533   23.1680 C.3         1 MOL       0.0596
      5 O9         25.5113  -15.2761   24.5764 O.3         1 MOL      -0.3203
      6 C5         24.3085  -14.7678   24.9939 C.ar        1 MOL       0.1052
      7 O1         20.3815  -12.7288   27.9608 O.2         1 MOL      -0.1516
      8 O10        19.9595  -11.7562   25.6847 O.2         1 MOL      -0.1516
      9 C7         22.1561  -15.1207   26.1008 C.ar        1 MOL      -0.0438
     10 C3         22.7935  -12.8872   25.3665 C.ar        1 MOL      -0.0300
     11 C6         23.3824  -15.6214   25.6249 C.ar        1 MOL      -0.0306
     12 C4         24.0211  -13.3868   24.8910 C.ar        1 MOL       0.0696
     13 C13        18.2115  -13.8637   24.0496 C.2         1 MOL       0.2048
     14 N11        18.9527  -14.1536   26.3080 N.am        1 MOL      -0.2244
     15 O14        17.1552  -13.2669   24.2232 O.2         1 MOL      -0.3945
     16 C15        16.0088  -19.0474   24.0253 C.3         1 MOL       0.0687
     17 C31        14.9837  -19.8849   24.7117 C.ar        1 MOL      -0.0116
     18 C32        15.3476  -20.9265   25.5983 C.ar        1 MOL      -0.0467
     19 C33        14.3669  -21.6980   26.2511 C.ar        1 MOL      -0.0334
     20 C44        12.9966  -21.4428   26.0301 C.ar        1 MOL       0.0883
     21 C8         12.6208  -20.4069   25.1478 C.ar        1 MOL      -0.0334
     22 C9         13.6077  -19.6415   24.4965 C.ar        1 MOL      -0.0467
     23 C40        12.0870  -22.1569   26.6318 C.1         1 MOL       0.0934
     24 N63        11.2864  -22.7877   27.1623 N.1         1 MOL      -0.3338
     25 C45        18.5632  -14.8317   25.1025 C.3         1 MOL       0.1430
     26 C12        17.4113  -15.8484   25.4296 C.3         1 MOL       0.0742
     27 C46        17.1259  -16.8875   24.4433 C.2         1 MOL       0.1821
     28 O22        17.7355  -16.9308   23.3843 O.2         1 MOL      -0.3967
     29 N14        16.2533  -17.8425   24.7637 N.am        1 MOL      -0.2739
     30 N15        18.9736  -13.5137   22.9933 N.am        1 MOL      -0.2500
     31 C16        18.6384  -12.4283   22.0887 C.3         1 MOL       0.1338
     32 C17        17.3750  -12.5692   21.3739 C.2         1 MOL       0.2037
     33 O18        17.0553  -13.6785   20.9635 O.2         1 MOL      -0.3944
     34 C34        19.8145  -12.3273   21.0866 C.3         1 MOL      -0.0104
     35 C1         20.9667  -13.0107   21.8219 C.3         1 MOL      -0.0281
     36 C2         20.2598  -14.0736   22.6767 C.3         1 MOL       0.0369
     37 N19        16.6270  -11.4994   21.1401 N.am        1 MOL      -0.2737
     38 C20        15.3816  -11.4764   20.4377 C.3         1 MOL       0.0645
     39 C21        14.2812  -11.3470   21.4205 C.ar        1 MOL      -0.0210
     40 C26        14.0197  -10.1049   22.0398 C.ar        1 MOL      -0.0584
     41 C25        12.9859   -9.9789   22.9843 C.ar        1 MOL      -0.0633
     42 C24        12.1827  -11.0872   23.3559 C.ar        1 MOL       0.0188
     43 C27        11.1383  -10.9582   24.2838 C.cat       1 MOL       0.2318
     44 N29        10.6083   -9.8236   24.5581 N.pl3       1 MOL      -0.2729
     45 N28        10.6341  -11.9517   24.9038 N.pl3       1 MOL      -0.2729
     46 C23        12.4711  -12.3343   22.7388 C.ar        1 MOL      -0.0633
     47 C22        13.4994  -12.4616   21.7882 C.ar        1 MOL      -0.0584
     48 H1         26.5565  -15.9792   22.9501 H           1 MOL       0.0578
     49 H2         25.4652  -14.6446   22.5733 H           1 MOL       0.0578
     50 H3         24.8159  -16.2769   22.8698 H           1 MOL       0.0578
     51 H4         21.4916  -15.7588   26.5445 H           1 MOL       0.0610
     52 H5         22.5868  -11.8909   25.2697 H           1 MOL       0.0614
     53 H6         23.5974  -16.6146   25.7354 H           1 MOL       0.0542
     54 H7         18.5814  -14.4696   27.1490 H           1 MOL       0.1706
     55 H8         15.6646  -18.8124   23.0146 H           1 MOL       0.0704
     56 H9         16.9485  -19.5996   23.9288 H           1 MOL       0.0704
     57 H10        16.3343  -21.1268   25.7825 H           1 MOL       0.0584
     58 H11        14.6644  -22.4438   26.8896 H           1 MOL       0.0701
     59 H12        11.6341  -20.2002   24.9688 H           1 MOL       0.0701
     60 H13        13.3135  -18.9073   23.8495 H           1 MOL       0.0584
     61 H14        19.4152  -15.4384   24.8055 H           1 MOL       0.0779
     62 H15        16.4878  -15.3019   25.6457 H           1 MOL       0.0547
     63 H16        17.6834  -16.3697   26.3535 H           1 MOL       0.0547
     64 H17        15.7948  -17.7476   25.6113 H           1 MOL       0.1881
     65 H18        18.6291  -11.5041   22.6791 H           1 MOL       0.0802
     66 H19        20.0565  -11.2866   20.8446 H           1 MOL       0.0313
     67 H20        19.6142  -12.8678   20.1528 H           1 MOL       0.0313
     68 H21        21.4814  -12.2907   22.4614 H           1 MOL       0.0287
     69 H22        21.6847  -13.4487   21.1280 H           1 MOL       0.0287
     70 H23        20.1251  -15.0035   22.1162 H           1 MOL       0.0524
     71 H24        20.8839  -14.2695   23.5484 H           1 MOL       0.0524
     72 H25        16.9301  -10.6526   21.5085 H           1 MOL       0.1878
     73 H26        15.2466  -12.3668   19.8157 H           1 MOL       0.0683
     74 H27        15.3752  -10.6202   19.7589 H           1 MOL       0.0683
     75 H28        14.5865   -9.2839   21.8071 H           1 MOL       0.0557
     76 H29        12.8457   -9.0613   23.4120 H           1 MOL       0.0599
     77 H30         9.9061   -9.7726   25.1725 H           1 MOL       0.3180
     78 H31        10.8991   -9.0441   24.1355 H           1 MOL       0.3180
     79 H32        10.9530  -12.8209   24.7648 H           1 MOL       0.3180
     80 H33         9.9223  -11.8196   25.4958 H           1 MOL       0.3180
     81 H34        11.9202  -13.1689   22.9544 H           1 MOL       0.0599
     82 H35        13.6737  -13.3770   21.3651 H           1 MOL       0.0557
@<TRIPOS>BOND
     1     1     3   1
     2     1     7   2
     3     1     8   2
     4    14     1  am
     5    12     2   1
     6     3     9  ar
     7     3    10  ar
     8     5     4   1
     9     6     5   1
    10    11     6  ar
    11    12     6  ar
    12     9    11  ar
    13    10    12  ar
    14    13    15   2
    15    25    13   1
    16    13    30  am
    17    25    14   1
    18    16    17   1
    19    29    16   1
    20    17    18  ar
    21    17    22  ar
    22    18    19  ar
    23    19    20  ar
    24    21    20  ar
    25    20    23   1
    26    22    21  ar
    27    23    24   3
    28    26    25   1
    29    27    26   1
    30    27    28   2
    31    27    29  am
    32    30    31   1
    33    30    36   1
    34    31    32   1
    35    31    34   1
    36    32    33   2
    37    32    37  am
    38    34    35   1
    39    35    36   1
    40    37    38   1
    41    38    39   1
    42    39    40  ar
    43    39    47  ar
    44    40    41  ar
    45    41    42  ar
    46    42    43   1
    47    42    46  ar
    48    43    44  ar
    49    43    45  ar
    50    46    47  ar
    51     4    48   1
    52     4    49   1
    53     4    50   1
    54     9    51   1
    55    10    52   1
    56    11    53   1
    57    14    54   1
    58    16    55   1
    59    16    56   1
    60    18    57   1
    61    19    58   1
    62    21    59   1
    63    22    60   1
    64    25    61   1
    65    26    62   1
    66    26    63   1
    67    29    64   1
    68    31    65   1
    69    34    66   1
    70    34    67   1
    71    35    68   1
    72    35    69   1
    73    36    70   1
    74    36    71   1
    75    37    72   1
    76    38    73   1
    77    38    74   1
    78    40    75   1
    79    41    76   1
    80    44    77   1
    81    44    78   1
    82    45    79   1
    83    45    80   1
    84    46    81   1
    85    47    82   1
@<TRIPOS>SUBSTRUCTURE
     1  MOL      2

