@<TRIPOS>MOLECULE
3utu_ligand_081
    82    85
SMALL
GAST_HUCK
****
This file was generated by PARSER (from files_GN.cpp)

@<TRIPOS>ATOM
      1 S8         16.4036  -13.5937   13.4556 S.o2        1 MOL       0.0657
      2 CL         19.2171  -17.1024   10.4338 Cl          1 MOL      -0.0788
      3 C35        17.3260  -15.0671   13.3132 C.ar        1 MOL       0.0977
      4 C10        20.8762  -18.6099   13.5753 C.3         1 MOL       0.0596
      5 O9         19.5648  -18.6187   12.9827 O.3         1 MOL      -0.3203
      6 C5         18.8656  -17.4413   13.0966 C.ar        1 MOL       0.1052
      7 O1         15.8321  -13.2151   12.0219 O.2         1 MOL      -0.1516
      8 O10        15.1715  -13.9190   14.4105 O.2         1 MOL      -0.1516
      9 C7         17.5536  -15.8746   14.4487 C.ar        1 MOL      -0.0438
     10 C3         17.8684  -15.4575   12.0676 C.ar        1 MOL      -0.0300
     11 C6         18.3075  -17.0598   14.3363 C.ar        1 MOL      -0.0306
     12 C4         18.6202  -16.6446   11.9537 C.ar        1 MOL       0.0696
     13 C13        15.9540  -11.3326   15.7139 C.2         1 MOL       0.2048
     14 N11        17.4076  -12.3812   14.0760 N.am        1 MOL      -0.2244
     15 O14        14.9060  -10.7166   15.5500 O.2         1 MOL      -0.3945
     16 C15        15.8664  -10.6716   10.1203 C.3         1 MOL       0.0687
     17 C31        14.6075  -11.3194    9.6483 C.ar        1 MOL      -0.0116
     18 C32        14.4103  -11.4769    8.2546 C.ar        1 MOL      -0.0467
     19 C33        13.2660  -12.1197    7.7502 C.ar        1 MOL      -0.0334
     20 C44        12.3004  -12.6451    8.6356 C.ar        1 MOL       0.0883
     21 C8         12.4873  -12.5028   10.0259 C.ar        1 MOL      -0.0334
     22 C9         13.6219  -11.8360   10.5239 C.ar        1 MOL      -0.0467
     23 C40        11.2468  -13.2554    8.1734 C.1         1 MOL       0.0934
     24 N63        10.3154  -13.7932    7.7694 N.1         1 MOL      -0.3338
     25 C45        17.0212  -11.1492   14.7149 C.3         1 MOL       0.1430
     26 C12        16.8687   -9.9431   13.6962 C.3         1 MOL       0.0742
     27 C46        16.9878  -10.2622   12.2795 C.2         1 MOL       0.1821
     28 O22        18.1040  -10.5145   11.8404 O.2         1 MOL      -0.3967
     29 N14        15.9048  -10.3241   11.5118 N.am        1 MOL      -0.2739
     30 N15        16.0220  -12.1770   16.7639 N.am        1 MOL      -0.2500
     31 C16        14.9081  -12.4171   17.6491 C.3         1 MOL       0.1338
     32 C17        14.7666  -11.3584   18.6461 C.2         1 MOL       0.2037
     33 O18        13.7428  -10.6873   18.6689 O.2         1 MOL      -0.3944
     34 C34        15.1942  -13.8114   18.2561 C.3         1 MOL      -0.0104
     35 C1         16.7224  -13.9403   18.2398 C.3         1 MOL      -0.0281
     36 C2         17.1690  -12.9763   17.1189 C.3         1 MOL       0.0369
     37 N19        15.7252  -11.1678   19.5441 N.am        1 MOL      -0.2737
     38 C20        15.7282  -10.2653   20.6462 C.3         1 MOL       0.0645
     39 C21        14.5687  -10.3865   21.5723 C.ar        1 MOL      -0.0210
     40 C26        14.0844  -11.6466   21.9872 C.ar        1 MOL      -0.0584
     41 C25        12.9674  -11.7462   22.8402 C.ar        1 MOL      -0.0633
     42 C24        12.3132  -10.5933   23.3522 C.ar        1 MOL       0.0188
     43 C27        11.1942  -10.6881   24.2026 C.cat       1 MOL       0.2318
     44 N29        10.6099  -11.7896   24.4897 N.pl3       1 MOL      -0.2729
     45 N28        10.6607   -9.6665   24.7604 N.pl3       1 MOL      -0.2729
     46 C23        12.8401   -9.3343   22.9525 C.ar        1 MOL      -0.0633
     47 C22        13.9383   -9.2313   22.0808 C.ar        1 MOL      -0.0584
     48 H1         21.3672  -19.5560   13.3336 H           1 MOL       0.0578
     49 H2         20.8088  -18.5318   14.6624 H           1 MOL       0.0578
     50 H3         21.4971  -17.7982   13.1868 H           1 MOL       0.0578
     51 H4         17.1695  -15.5979   15.3652 H           1 MOL       0.0610
     52 H5         17.7140  -14.8829   11.2344 H           1 MOL       0.0614
     53 H6         18.4420  -17.6403   15.1669 H           1 MOL       0.0542
     54 H7         18.3544  -12.4782   13.8674 H           1 MOL       0.1706
     55 H8         16.0250   -9.7477    9.5648 H           1 MOL       0.0704
     56 H9         16.6897  -11.3562    9.8797 H           1 MOL       0.0704
     57 H10        15.1027  -11.1125    7.5944 H           1 MOL       0.0584
     58 H11        13.1516  -12.2054    6.7375 H           1 MOL       0.0701
     59 H12        11.8086  -12.8867   10.6914 H           1 MOL       0.0701
     60 H13        13.7265  -11.7575   11.5371 H           1 MOL       0.0584
     61 H14        17.8925  -10.8851   15.3215 H           1 MOL       0.0779
     62 H15        17.6366   -9.1916   13.9162 H           1 MOL       0.0547
     63 H16        15.9209   -9.4164   13.8476 H           1 MOL       0.0547
     64 H17        15.0604  -10.0938   11.9289 H           1 MOL       0.1881
     65 H18        13.9843  -12.5051   17.0687 H           1 MOL       0.0802
     66 H19        14.7629  -14.5881   17.6167 H           1 MOL       0.0313
     67 H20        14.7831  -13.9329   19.2628 H           1 MOL       0.0313
     68 H21        17.0137  -14.9698   18.0358 H           1 MOL       0.0287
     69 H22        17.1471  -13.6499   19.2005 H           1 MOL       0.0287
     70 H23        17.9852  -12.3290   17.4752 H           1 MOL       0.0524
     71 H24        17.5198  -13.5878   16.2689 H           1 MOL       0.0524
     72 H25        16.5060  -11.7326   19.4649 H           1 MOL       0.1878
     73 H26        15.8215   -9.2495   20.2552 H           1 MOL       0.0683
     74 H27        16.6322  -10.4792   21.2198 H           1 MOL       0.0683
     75 H28        14.5251  -12.5055   21.6472 H           1 MOL       0.0557
     76 H29        12.6475  -12.6852   23.0877 H           1 MOL       0.0599
     77 H30         9.8624  -11.7804   25.0522 H           1 MOL       0.3180
     78 H31        10.8986  -12.6076   24.1421 H           1 MOL       0.3180
     79 H32        11.0036   -8.8102   24.6269 H           1 MOL       0.3180
     80 H33         9.9135   -9.7717   25.3088 H           1 MOL       0.3180
     81 H34        12.4277   -8.4592   23.2819 H           1 MOL       0.0599
     82 H35        14.2794   -8.3001   21.8240 H           1 MOL       0.0557
@<TRIPOS>BOND
     1     1     3   1
     2     1     7   2
     3     1     8   2
     4    14     1  am
     5    12     2   1
     6     3     9  ar
     7     3    10  ar
     8     5     4   1
     9     6     5   1
    10    11     6  ar
    11    12     6  ar
    12     9    11  ar
    13    10    12  ar
    14    13    15   2
    15    25    13   1
    16    13    30  am
    17    25    14   1
    18    16    17   1
    19    29    16   1
    20    17    18  ar
    21    17    22  ar
    22    18    19  ar
    23    19    20  ar
    24    21    20  ar
    25    20    23   1
    26    22    21  ar
    27    23    24   3
    28    26    25   1
    29    27    26   1
    30    27    28   2
    31    27    29  am
    32    30    31   1
    33    30    36   1
    34    31    32   1
    35    31    34   1
    36    32    33   2
    37    32    37  am
    38    34    35   1
    39    35    36   1
    40    37    38   1
    41    38    39   1
    42    39    40  ar
    43    39    47  ar
    44    40    41  ar
    45    41    42  ar
    46    42    43   1
    47    42    46  ar
    48    43    44  ar
    49    43    45  ar
    50    46    47  ar
    51     4    48   1
    52     4    49   1
    53     4    50   1
    54     9    51   1
    55    10    52   1
    56    11    53   1
    57    14    54   1
    58    16    55   1
    59    16    56   1
    60    18    57   1
    61    19    58   1
    62    21    59   1
    63    22    60   1
    64    25    61   1
    65    26    62   1
    66    26    63   1
    67    29    64   1
    68    31    65   1
    69    34    66   1
    70    34    67   1
    71    35    68   1
    72    35    69   1
    73    36    70   1
    74    36    71   1
    75    37    72   1
    76    38    73   1
    77    38    74   1
    78    40    75   1
    79    41    76   1
    80    44    77   1
    81    44    78   1
    82    45    79   1
    83    45    80   1
    84    46    81   1
    85    47    82   1
@<TRIPOS>SUBSTRUCTURE
     1  MOL      2

