@<TRIPOS>MOLECULE
3utu_ligand_052
    82    85
SMALL
GAST_HUCK
****
This file was generated by PARSER (from files_GN.cpp)

@<TRIPOS>ATOM
      1 S8         18.0694  -16.4632   22.1726 S.o2        1 MOL       0.0657
      2 CL         18.8314  -20.5027   18.6619 Cl          1 MOL      -0.0788
      3 C35        19.1536  -17.5038   21.2838 C.ar        1 MOL       0.0977
      4 C10        22.2916  -21.1123   19.8291 C.3         1 MOL       0.0596
      5 O9         21.7566  -19.9860   19.1111 O.3         1 MOL      -0.3203
      6 C5         20.8967  -19.2209   19.8449 C.ar        1 MOL       0.1052
      7 O1         17.2738  -15.6284   21.0744 O.2         1 MOL      -0.1516
      8 O10        17.0388  -17.3757   22.9753 O.2         1 MOL      -0.1516
      9 C7         20.5539  -17.3691   21.4060 C.ar        1 MOL      -0.0438
     10 C3         18.6348  -18.4950   20.4201 C.ar        1 MOL      -0.0300
     11 C6         21.4156  -18.2135   20.6855 C.ar        1 MOL      -0.0306
     12 C4         19.4964  -19.3493   19.7056 C.ar        1 MOL       0.0696
     13 C13        18.0712  -13.1650   22.7761 C.2         1 MOL       0.2048
     14 N11        18.8836  -15.4181   23.2130 N.am        1 MOL      -0.2244
     15 O14        16.9705  -12.6371   22.8948 O.2         1 MOL      -0.3945
     16 C15        18.1601  -16.4240   27.3903 C.3         1 MOL       0.0687
     17 C31        17.3421  -17.5925   26.9670 C.ar        1 MOL      -0.0116
     18 C32        17.6968  -18.9116   27.3361 C.ar        1 MOL      -0.0467
     19 C33        16.9136  -20.0093   26.9328 C.ar        1 MOL      -0.0334
     20 C44        15.7634  -19.8091   26.1385 C.ar        1 MOL       0.0883
     21 C8         15.4036  -18.4990   25.7589 C.ar        1 MOL      -0.0334
     22 C9         16.1847  -17.4046   26.1762 C.ar        1 MOL      -0.0467
     23 C40        15.0333  -20.8244   25.7690 C.1         1 MOL       0.0934
     24 N63        14.3857  -21.7178   25.4483 N.1         1 MOL      -0.3338
     25 C45        18.3331  -14.2242   23.7651 C.3         1 MOL       0.1430
     26 C12        19.2306  -13.7286   24.9526 C.3         1 MOL       0.0742
     27 C46        19.1486  -14.5037   26.1935 C.2         1 MOL       0.1821
     28 O22        19.5691  -13.9886   27.2290 O.2         1 MOL      -0.3967
     29 N14        18.5590  -15.6946   26.2323 N.am        1 MOL      -0.2739
     30 N15        18.8887  -12.7271   21.7987 N.am        1 MOL      -0.2500
     31 C16        18.5641  -11.5959   20.9526 C.3         1 MOL       0.1338
     32 C17        17.3458  -11.7969   20.1633 C.2         1 MOL       0.2037
     33 O18        17.2757  -12.7571   19.4019 O.2         1 MOL      -0.3944
     34 C34        19.8151  -11.3330   20.0791 C.3         1 MOL      -0.0104
     35 C1         20.6239  -12.6291   20.1697 C.3         1 MOL      -0.0281
     36 C2         20.1905  -13.2520   21.5076 C.3         1 MOL       0.0369
     37 N19        16.3196  -10.9786   20.3578 N.am        1 MOL      -0.2737
     38 C20        14.9986  -11.0750   19.8160 C.3         1 MOL       0.0645
     39 C21        13.9956  -11.0430   20.9100 C.ar        1 MOL      -0.0210
     40 C26        13.9317   -9.9397   21.7917 C.ar        1 MOL      -0.0584
     41 C25        12.9758   -9.8896   22.8201 C.ar        1 MOL      -0.0633
     42 C24        12.0361  -10.9393   23.0058 C.ar        1 MOL       0.0188
     43 C27        11.0556  -10.8751   24.0056 C.cat       1 MOL       0.2318
     44 N29        10.6565   -9.7642   24.5021 N.pl3       1 MOL      -0.2729
     45 N28        10.4844  -11.9208   24.4812 N.pl3       1 MOL      -0.2729
     46 C23        12.1107  -12.0441   22.1165 C.ar        1 MOL      -0.0633
     47 C22        13.0677  -12.0938   21.0888 C.ar        1 MOL      -0.0584
     48 H1         22.9657  -21.6494   19.1612 H           1 MOL       0.0578
     49 H2         21.5010  -21.7982   20.1432 H           1 MOL       0.0578
     50 H3         22.8653  -20.7923   20.7047 H           1 MOL       0.0578
     51 H4         20.9623  -16.6542   22.0106 H           1 MOL       0.0610
     52 H5         17.6197  -18.5864   20.3040 H           1 MOL       0.0614
     53 H6         22.4266  -18.0890   20.7715 H           1 MOL       0.0542
     54 H7         19.7719  -15.6891   23.5038 H           1 MOL       0.1706
     55 H8         19.0476  -16.7258   27.9531 H           1 MOL       0.0704
     56 H9         17.5488  -15.7858   28.0335 H           1 MOL       0.0704
     57 H10        18.5265  -19.0816   27.9105 H           1 MOL       0.0584
     58 H11        17.1899  -20.9502   27.2270 H           1 MOL       0.0701
     59 H12        14.5712  -18.3269   25.1847 H           1 MOL       0.0701
     60 H13        15.9014  -16.4635   25.8916 H           1 MOL       0.0584
     61 H14        17.3720  -14.5114   24.2078 H           1 MOL       0.0779
     62 H15        18.9344  -12.7014   25.1997 H           1 MOL       0.0547
     63 H16        20.2799  -13.6925   24.6449 H           1 MOL       0.0547
     64 H17        18.2917  -16.0720   25.3819 H           1 MOL       0.1881
     65 H18        18.4394  -10.7220   21.6091 H           1 MOL       0.0802
     66 H19        20.4009  -10.5067   20.4975 H           1 MOL       0.0313
     67 H20        19.5802  -11.0908   19.0391 H           1 MOL       0.0313
     68 H21        21.7006  -12.4408   20.1340 H           1 MOL       0.0287
     69 H22        20.3559  -13.2891   19.3378 H           1 MOL       0.0287
     70 H23        20.1877  -14.3381   21.3803 H           1 MOL       0.0524
     71 H24        20.8914  -12.9775   22.2989 H           1 MOL       0.0524
     72 H25        16.4702  -10.2419   20.9717 H           1 MOL       0.1878
     73 H26        14.8788  -11.9693   19.1956 H           1 MOL       0.0683
     74 H27        14.8294  -10.2106   19.1721 H           1 MOL       0.0683
     75 H28        14.5818   -9.1575   21.6875 H           1 MOL       0.0557
     76 H29        12.9783   -9.0735   23.4378 H           1 MOL       0.0599
     77 H30         9.9894   -9.7553   25.1564 H           1 MOL       0.3180
     78 H31        11.0141   -8.9538   24.2010 H           1 MOL       0.3180
     79 H32        10.7166  -12.7725   24.1772 H           1 MOL       0.3180
     80 H33         9.8228  -11.8305   25.1317 H           1 MOL       0.3180
     81 H34        11.4457  -12.8186   22.1883 H           1 MOL       0.0599
     82 H35        13.0733  -12.9007   20.4592 H           1 MOL       0.0557
@<TRIPOS>BOND
     1     1     3   1
     2     1     7   2
     3     1     8   2
     4    14     1  am
     5    12     2   1
     6     3     9  ar
     7     3    10  ar
     8     5     4   1
     9     6     5   1
    10    11     6  ar
    11    12     6  ar
    12     9    11  ar
    13    10    12  ar
    14    13    15   2
    15    25    13   1
    16    13    30  am
    17    25    14   1
    18    16    17   1
    19    29    16   1
    20    17    18  ar
    21    17    22  ar
    22    18    19  ar
    23    19    20  ar
    24    21    20  ar
    25    20    23   1
    26    22    21  ar
    27    23    24   3
    28    26    25   1
    29    27    26   1
    30    27    28   2
    31    27    29  am
    32    30    31   1
    33    30    36   1
    34    31    32   1
    35    31    34   1
    36    32    33   2
    37    32    37  am
    38    34    35   1
    39    35    36   1
    40    37    38   1
    41    38    39   1
    42    39    40  ar
    43    39    47  ar
    44    40    41  ar
    45    41    42  ar
    46    42    43   1
    47    42    46  ar
    48    43    44  ar
    49    43    45  ar
    50    46    47  ar
    51     4    48   1
    52     4    49   1
    53     4    50   1
    54     9    51   1
    55    10    52   1
    56    11    53   1
    57    14    54   1
    58    16    55   1
    59    16    56   1
    60    18    57   1
    61    19    58   1
    62    21    59   1
    63    22    60   1
    64    25    61   1
    65    26    62   1
    66    26    63   1
    67    29    64   1
    68    31    65   1
    69    34    66   1
    70    34    67   1
    71    35    68   1
    72    35    69   1
    73    36    70   1
    74    36    71   1
    75    37    72   1
    76    38    73   1
    77    38    74   1
    78    40    75   1
    79    41    76   1
    80    44    77   1
    81    44    78   1
    82    45    79   1
    83    45    80   1
    84    46    81   1
    85    47    82   1
@<TRIPOS>SUBSTRUCTURE
     1  MOL      2

