@<TRIPOS>MOLECULE
3utu_ligand_075
    82    85
SMALL
GAST_HUCK
****
This file was generated by PARSER (from files_GN.cpp)

@<TRIPOS>ATOM
      1 S8         20.9545  -18.0629   22.2748 S.o2        1 MOL       0.0657
      2 CL         25.3058  -16.7778   25.2233 Cl          1 MOL      -0.0788
      3 C35        22.6541  -17.7089   22.3811 C.ar        1 MOL       0.0977
      4 C10        27.1876  -15.6623   22.3832 C.3         1 MOL       0.0596
      5 O9         26.7938  -17.0258   22.6133 O.3         1 MOL      -0.3203
      6 C5         25.4338  -17.2151   22.5489 C.ar        1 MOL       0.1052
      7 O1         20.6115  -19.0056   21.0416 O.2         1 MOL      -0.1516
      8 O10        20.5021  -18.9140   23.5378 O.2         1 MOL      -0.1516
      9 C7         23.4658  -17.8205   21.2344 C.ar        1 MOL      -0.0438
     10 C3         23.2362  -17.3453   23.6130 C.ar        1 MOL      -0.0300
     11 C6         24.8462  -17.5713   21.3189 C.ar        1 MOL      -0.0306
     12 C4         24.6258  -17.1223   23.7073 C.ar        1 MOL       0.0696
     13 C13        18.9630  -14.7268   21.4672 C.2         1 MOL       0.2048
     14 N11        19.9631  -16.7000   22.2990 N.am        1 MOL      -0.2244
     15 O14        18.1423  -14.6241   22.3748 O.2         1 MOL      -0.3945
     16 C15        15.4121  -17.3912   23.0084 C.3         1 MOL       0.0687
     17 C31        14.2773  -18.0314   22.2937 C.ar        1 MOL      -0.0116
     18 C32        13.6963  -17.4002   21.1689 C.ar        1 MOL      -0.0467
     19 C33        12.6008  -17.9797   20.5008 C.ar        1 MOL      -0.0334
     20 C44        12.0414  -19.1871   20.9700 C.ar        1 MOL       0.0883
     21 C8         12.6002  -19.8104   22.1079 C.ar        1 MOL      -0.0334
     22 C9         13.7131  -19.2416   22.7578 C.ar        1 MOL      -0.0467
     23 C40        11.0237  -19.7189   20.3565 C.1         1 MOL       0.0934
     24 N63        10.1271  -20.1845   19.8111 N.1         1 MOL      -0.3338
     25 C45        19.3797  -16.1007   21.1356 C.3         1 MOL       0.1430
     26 C12        18.2228  -16.9672   20.5204 C.3         1 MOL       0.0742
     27 C46        17.3301  -17.6220   21.4662 C.2         1 MOL       0.1821
     28 O22        17.3792  -18.8411   21.5982 O.2         1 MOL      -0.3967
     29 N14        16.4305  -16.9086   22.1266 N.am        1 MOL      -0.2739
     30 N15        19.3787  -13.5994   20.8568 N.am        1 MOL      -0.2500
     31 C16        18.7701  -12.3055   21.0973 C.3         1 MOL       0.1338
     32 C17        17.4439  -12.1669   20.4899 C.2         1 MOL       0.2037
     33 O18        17.0698  -12.9705   19.6450 O.2         1 MOL      -0.3944
     34 C34        19.7899  -11.2950   20.5226 C.3         1 MOL      -0.0104
     35 C1         20.5089  -12.0776   19.4158 C.3         1 MOL      -0.0281
     36 C2         20.4690  -13.5254   19.9251 C.3         1 MOL       0.0369
     37 N19        16.6683  -11.1468   20.8407 N.am        1 MOL      -0.2737
     38 C20        15.3748  -10.8237   20.3158 C.3         1 MOL       0.0645
     39 C21        14.3578  -10.8153   21.3981 C.ar        1 MOL      -0.0210
     40 C26        13.7430  -12.0157   21.8170 C.ar        1 MOL      -0.0584
     41 C25        12.7265  -12.0001   22.7913 C.ar        1 MOL      -0.0633
     42 C24        12.2855  -10.7923   23.3993 C.ar        1 MOL       0.0188
     43 C27        11.2281  -10.7670   24.3308 C.cat       1 MOL       0.2318
     44 N29        10.7352   -9.6827   24.7979 N.pl3       1 MOL      -0.2729
     45 N28        10.6538  -11.8199   24.7750 N.pl3       1 MOL      -0.2729
     46 C23        12.9439   -9.6006   22.9917 C.ar        1 MOL      -0.0633
     47 C22        13.9514   -9.6086   22.0094 C.ar        1 MOL      -0.0584
     48 H1         28.2731  -15.6027   22.4781 H           1 MOL       0.0578
     49 H2         26.7444  -14.9883   23.1153 H           1 MOL       0.0578
     50 H3         26.9142  -15.3356   21.3744 H           1 MOL       0.0578
     51 H4         23.0664  -18.0928   20.3354 H           1 MOL       0.0610
     52 H5         22.6558  -17.2616   24.4494 H           1 MOL       0.0614
     53 H6         25.4305  -17.6580   20.4846 H           1 MOL       0.0542
     54 H7         19.6315  -16.4079   23.1724 H           1 MOL       0.1706
     55 H8         15.8634  -18.0538   23.7511 H           1 MOL       0.0704
     56 H9         15.0169  -16.5242   23.5437 H           1 MOL       0.0704
     57 H10        14.0716  -16.5156   20.8199 H           1 MOL       0.0584
     58 H11        12.2184  -17.5098   19.6764 H           1 MOL       0.0701
     59 H12        12.1994  -20.6801   22.4785 H           1 MOL       0.0701
     60 H13        14.0972  -19.7094   23.5802 H           1 MOL       0.0584
     61 H14        20.1768  -16.0744   20.3903 H           1 MOL       0.0779
     62 H15        18.6759  -17.7219   19.8834 H           1 MOL       0.0547
     63 H16        17.6255  -16.3427   19.8531 H           1 MOL       0.0547
     64 H17        16.4374  -15.9524   21.9705 H           1 MOL       0.1881
     65 H18        18.6868  -12.1249   22.1728 H           1 MOL       0.0802
     66 H19        20.5242  -11.0237   21.2880 H           1 MOL       0.0313
     67 H20        19.3356  -10.3766   20.1423 H           1 MOL       0.0313
     68 H21        21.5342  -11.7265   19.2604 H           1 MOL       0.0287
     69 H22        19.9515  -11.9889   18.4774 H           1 MOL       0.0287
     70 H23        20.3312  -14.1977   19.0824 H           1 MOL       0.0524
     71 H24        21.3966  -13.7639   20.4397 H           1 MOL       0.0524
     72 H25        17.0211  -10.5271   21.5011 H           1 MOL       0.1878
     73 H26        15.0562  -11.5023   19.5175 H           1 MOL       0.0683
     74 H27        15.4517   -9.8322   19.8600 H           1 MOL       0.0683
     75 H28        14.0108  -12.9070   21.3926 H           1 MOL       0.0557
     76 H29        12.2958  -12.8925   23.0341 H           1 MOL       0.0599
     77 H30        10.0166   -9.7125   25.3943 H           1 MOL       0.3180
     78 H31        11.0650   -8.8517   24.5337 H           1 MOL       0.3180
     79 H32        10.9160  -12.6766   24.5043 H           1 MOL       0.3180
     80 H33         9.9376  -11.7403   25.3737 H           1 MOL       0.3180
     81 H34        12.7006   -8.6937   23.3934 H           1 MOL       0.0599
     82 H35        14.3842   -8.7204   21.7326 H           1 MOL       0.0557
@<TRIPOS>BOND
     1     1     3   1
     2     1     7   2
     3     1     8   2
     4    14     1  am
     5    12     2   1
     6     3     9  ar
     7     3    10  ar
     8     5     4   1
     9     6     5   1
    10    11     6  ar
    11    12     6  ar
    12     9    11  ar
    13    10    12  ar
    14    13    15   2
    15    25    13   1
    16    13    30  am
    17    25    14   1
    18    16    17   1
    19    29    16   1
    20    17    18  ar
    21    17    22  ar
    22    18    19  ar
    23    19    20  ar
    24    21    20  ar
    25    20    23   1
    26    22    21  ar
    27    23    24   3
    28    26    25   1
    29    27    26   1
    30    27    28   2
    31    27    29  am
    32    30    31   1
    33    30    36   1
    34    31    32   1
    35    31    34   1
    36    32    33   2
    37    32    37  am
    38    34    35   1
    39    35    36   1
    40    37    38   1
    41    38    39   1
    42    39    40  ar
    43    39    47  ar
    44    40    41  ar
    45    41    42  ar
    46    42    43   1
    47    42    46  ar
    48    43    44  ar
    49    43    45  ar
    50    46    47  ar
    51     4    48   1
    52     4    49   1
    53     4    50   1
    54     9    51   1
    55    10    52   1
    56    11    53   1
    57    14    54   1
    58    16    55   1
    59    16    56   1
    60    18    57   1
    61    19    58   1
    62    21    59   1
    63    22    60   1
    64    25    61   1
    65    26    62   1
    66    26    63   1
    67    29    64   1
    68    31    65   1
    69    34    66   1
    70    34    67   1
    71    35    68   1
    72    35    69   1
    73    36    70   1
    74    36    71   1
    75    37    72   1
    76    38    73   1
    77    38    74   1
    78    40    75   1
    79    41    76   1
    80    44    77   1
    81    44    78   1
    82    45    79   1
    83    45    80   1
    84    46    81   1
    85    47    82   1
@<TRIPOS>SUBSTRUCTURE
     1  MOL      2

