@<TRIPOS>MOLECULE
3utu_ligand_054
    82    85
SMALL
GAST_HUCK
****
This file was generated by PARSER (from files_GN.cpp)

@<TRIPOS>ATOM
      1 S8         17.0168  -15.9313   25.9874 S.o2        1 MOL       0.0657
      2 CL         19.8499  -20.4460   26.8686 Cl          1 MOL      -0.0788
      3 C35        17.8633  -16.9900   27.0869 C.ar        1 MOL       0.0977
      4 C10        19.2778  -20.0199   30.8318 C.3         1 MOL       0.0596
      5 O9         19.9998  -19.5013   29.6965 O.3         1 MOL      -0.3203
      6 C5         19.2539  -18.7137   28.8620 C.ar        1 MOL       0.1052
      7 O1         15.8616  -16.7681   25.2824 O.2         1 MOL      -0.1516
      8 O10        16.2203  -14.7841   26.7559 O.2         1 MOL      -0.1516
      9 C7         17.9875  -16.6582   28.4529 C.ar        1 MOL      -0.0438
     10 C3         18.4489  -18.1791   26.6109 C.ar        1 MOL      -0.0300
     11 C6         18.6752  -17.5173   29.3341 C.ar        1 MOL      -0.0306
     12 C4         19.1404  -19.0356   27.4889 C.ar        1 MOL       0.0696
     13 C13        18.0608  -13.9343   22.9225 C.2         1 MOL       0.2048
     14 N11        18.0747  -15.1780   24.8989 N.am        1 MOL      -0.2244
     15 O14        17.0070  -13.3541   23.1670 O.2         1 MOL      -0.3945
     16 C15        16.3462  -17.4861   19.3041 C.3         1 MOL       0.0687
     17 C31        17.4377  -18.3780   18.8131 C.ar        1 MOL      -0.0116
     18 C32        17.5067  -18.6659   17.4283 C.ar        1 MOL      -0.0467
     19 C33        18.5059  -19.5075   16.9096 C.ar        1 MOL      -0.0334
     20 C44        19.4605  -20.0882   17.7706 C.ar        1 MOL       0.0883
     21 C8         19.4004  -19.8207   19.1558 C.ar        1 MOL      -0.0334
     22 C9         18.3929  -18.9806   19.6686 C.ar        1 MOL      -0.0467
     23 C40        20.3836  -20.8793   17.3053 C.1         1 MOL       0.0934
     24 N63        21.1995  -21.5776   16.8880 N.1         1 MOL      -0.3338
     25 C45        18.1718  -15.2897   23.4724 C.3         1 MOL       0.1430
     26 C12        17.1859  -16.2864   22.7709 C.3         1 MOL       0.0742
     27 C46        17.3026  -16.4534   21.3221 C.2         1 MOL       0.1821
     28 O22        18.2764  -16.0309   20.7049 O.2         1 MOL      -0.3967
     29 N14        16.3571  -17.1480   20.6953 N.am        1 MOL      -0.2739
     30 N15        18.9759  -13.3152   22.1570 N.am        1 MOL      -0.2500
     31 C16        18.7324  -12.0797   21.4485 C.3         1 MOL       0.1338
     32 C17        17.5105  -12.0687   20.6467 C.2         1 MOL       0.2037
     33 O18        17.3418  -12.9518   19.8146 O.2         1 MOL      -0.3944
     34 C34        19.9842  -11.8521   20.5673 C.3         1 MOL      -0.0104
     35 C1         21.0864  -12.6236   21.2966 C.3         1 MOL      -0.0281
     36 C2         20.3311  -13.7686   21.9913 C.3         1 MOL       0.0369
     37 N19        16.5771  -11.1604   20.8950 N.am        1 MOL      -0.2737
     38 C20        15.2785  -11.0654   20.3060 C.3         1 MOL       0.0645
     39 C21        14.2619  -11.0216   21.3858 C.ar        1 MOL      -0.0210
     40 C26        13.9410   -9.8051   22.0241 C.ar        1 MOL      -0.0584
     41 C25        12.9600   -9.7567   23.0301 C.ar        1 MOL      -0.0633
     42 C24        12.2567  -10.9188   23.4469 C.ar        1 MOL       0.0188
     43 C27        11.2240  -10.8561   24.4065 C.cat       1 MOL       0.2318
     44 N29        10.7328   -9.7529   24.8266 N.pl3       1 MOL      -0.2729
     45 N28        10.6739  -11.8911   24.9146 N.pl3       1 MOL      -0.2729
     46 C23        12.6234  -12.1432   22.8232 C.ar        1 MOL      -0.0633
     47 C22        13.6045  -12.1952   21.8140 C.ar        1 MOL      -0.0584
     48 H1         19.9203  -20.7432   31.3416 H           1 MOL       0.0578
     49 H2         18.3617  -20.5341   30.5287 H           1 MOL       0.0578
     50 H3         19.0388  -19.2208   31.5349 H           1 MOL       0.0578
     51 H4         17.5930  -15.7874   28.8132 H           1 MOL       0.0610
     52 H5         18.3868  -18.4194   25.6184 H           1 MOL       0.0614
     53 H6         18.7678  -17.2603   30.3148 H           1 MOL       0.0542
     54 H7         18.6892  -14.5353   25.3099 H           1 MOL       0.1706
     55 H8         15.3944  -17.9771   19.1006 H           1 MOL       0.0704
     56 H9         16.3560  -16.5499   18.7354 H           1 MOL       0.0704
     57 H10        16.8239  -18.2610   16.7836 H           1 MOL       0.0584
     58 H11        18.5262  -19.6982   15.9079 H           1 MOL       0.0701
     59 H12        20.0778  -20.2377   19.8093 H           1 MOL       0.0701
     60 H13        18.3677  -18.8257   20.6758 H           1 MOL       0.0584
     61 H14        19.1711  -15.6979   23.3127 H           1 MOL       0.0779
     62 H15        16.1535  -15.9780   23.0106 H           1 MOL       0.0547
     63 H16        17.3463  -17.2782   23.2124 H           1 MOL       0.0547
     64 H17        15.5968  -17.4452   21.2287 H           1 MOL       0.1881
     65 H18        18.6966  -11.2847   22.2013 H           1 MOL       0.0802
     66 H19        20.2304  -10.7909   20.4746 H           1 MOL       0.0313
     67 H20        19.8644  -12.2761   19.5650 H           1 MOL       0.0313
     68 H21        21.5648  -11.9829   22.0414 H           1 MOL       0.0287
     69 H22        21.8441  -12.9949   20.6057 H           1 MOL       0.0287
     70 H23        20.3651  -14.6703   21.3704 H           1 MOL       0.0524
     71 H24        20.8086  -13.9754   22.9551 H           1 MOL       0.0524
     72 H25        16.7892  -10.4905   21.5640 H           1 MOL       0.1878
     73 H26        15.0685  -11.8871   19.6162 H           1 MOL       0.0683
     74 H27        15.2432  -10.1451   19.7208 H           1 MOL       0.0683
     75 H28        14.4175   -8.9387   21.7503 H           1 MOL       0.0557
     76 H29        12.7676   -8.8444   23.4493 H           1 MOL       0.0599
     77 H30        10.0267   -9.7600   25.4415 H           1 MOL       0.3180
     78 H31        11.0483   -8.9323   24.5135 H           1 MOL       0.3180
     79 H32        10.9457  -12.7539   24.6785 H           1 MOL       0.3180
     80 H33         9.9720  -11.7899   25.5246 H           1 MOL       0.3180
     81 H34        12.1655  -13.0206   23.0745 H           1 MOL       0.0599
     82 H35        13.8286  -13.0971   21.3833 H           1 MOL       0.0557
@<TRIPOS>BOND
     1     1     3   1
     2     1     7   2
     3     1     8   2
     4    14     1  am
     5    12     2   1
     6     3     9  ar
     7     3    10  ar
     8     5     4   1
     9     6     5   1
    10    11     6  ar
    11    12     6  ar
    12     9    11  ar
    13    10    12  ar
    14    13    15   2
    15    25    13   1
    16    13    30  am
    17    25    14   1
    18    16    17   1
    19    29    16   1
    20    17    18  ar
    21    17    22  ar
    22    18    19  ar
    23    19    20  ar
    24    21    20  ar
    25    20    23   1
    26    22    21  ar
    27    23    24   3
    28    26    25   1
    29    27    26   1
    30    27    28   2
    31    27    29  am
    32    30    31   1
    33    30    36   1
    34    31    32   1
    35    31    34   1
    36    32    33   2
    37    32    37  am
    38    34    35   1
    39    35    36   1
    40    37    38   1
    41    38    39   1
    42    39    40  ar
    43    39    47  ar
    44    40    41  ar
    45    41    42  ar
    46    42    43   1
    47    42    46  ar
    48    43    44  ar
    49    43    45  ar
    50    46    47  ar
    51     4    48   1
    52     4    49   1
    53     4    50   1
    54     9    51   1
    55    10    52   1
    56    11    53   1
    57    14    54   1
    58    16    55   1
    59    16    56   1
    60    18    57   1
    61    19    58   1
    62    21    59   1
    63    22    60   1
    64    25    61   1
    65    26    62   1
    66    26    63   1
    67    29    64   1
    68    31    65   1
    69    34    66   1
    70    34    67   1
    71    35    68   1
    72    35    69   1
    73    36    70   1
    74    36    71   1
    75    37    72   1
    76    38    73   1
    77    38    74   1
    78    40    75   1
    79    41    76   1
    80    44    77   1
    81    44    78   1
    82    45    79   1
    83    45    80   1
    84    46    81   1
    85    47    82   1
@<TRIPOS>SUBSTRUCTURE
     1  MOL      2

