@<TRIPOS>MOLECULE
3utu_ligand_015
    82    85
SMALL
GAST_HUCK
****
This file was generated by PARSER (from files_GN.cpp)

@<TRIPOS>ATOM
      1 S8         19.6390  -17.4439   24.1643 S.o2        1 MOL       0.0657
      2 CL         19.5149  -21.0053   20.0785 Cl          1 MOL      -0.0788
      3 C35        20.2823  -18.0630   22.6713 C.ar        1 MOL       0.0977
      4 C10        23.0568  -20.6145   19.4596 C.3         1 MOL       0.0596
      5 O9         22.0489  -19.6237   19.1945 O.3         1 MOL      -0.3203
      6 C5         21.4558  -19.1287   20.3265 C.ar        1 MOL       0.1052
      7 O1         18.3181  -18.2022   24.6252 O.2         1 MOL      -0.1516
      8 O10        20.6876  -17.7481   25.3204 O.2         1 MOL      -0.1516
      9 C7         21.4464  -17.4794   22.1306 C.ar        1 MOL      -0.0438
     10 C3         19.6863  -19.1597   22.0127 C.ar        1 MOL      -0.0300
     11 C6         22.0250  -18.0058   20.9624 C.ar        1 MOL      -0.0306
     12 C4         20.2640  -19.6892   20.8410 C.ar        1 MOL       0.0696
     13 C13        17.9330  -14.5728   22.7737 C.2         1 MOL       0.2048
     14 N11        19.4343  -15.7699   24.1589 N.am        1 MOL      -0.2244
     15 O14        18.6779  -13.6706   22.4071 O.2         1 MOL      -0.3945
     16 C15        21.2460  -12.7315   26.8626 C.3         1 MOL       0.0687
     17 C31        22.3387  -13.2897   26.0216 C.ar        1 MOL      -0.0116
     18 C32        22.7417  -14.6358   26.1837 C.ar        1 MOL      -0.0467
     19 C33        23.7770  -15.1792   25.3990 C.ar        1 MOL      -0.0334
     20 C44        24.4286  -14.3816   24.4337 C.ar        1 MOL       0.0883
     21 C8         24.0258  -13.0405   24.2568 C.ar        1 MOL      -0.0334
     22 C9         22.9886  -12.5035   25.0428 C.ar        1 MOL      -0.0467
     23 C40        25.3912  -14.8797   23.7118 C.1         1 MOL       0.0934
     24 N63        26.2400  -15.3196   23.0747 N.1         1 MOL      -0.3338
     25 C45        18.1729  -15.0988   24.1247 C.3         1 MOL       0.1430
     26 C12        18.0811  -14.0194   25.2565 C.3         1 MOL       0.0742
     27 C46        19.2773  -13.2120   25.4724 C.2         1 MOL       0.1821
     28 O22        19.6239  -12.4108   24.6140 O.2         1 MOL      -0.3967
     29 N14        19.9941  -13.3624   26.5807 N.am        1 MOL      -0.2739
     30 N15        16.9765  -14.9838   21.9180 N.am        1 MOL      -0.2500
     31 C16        16.6713  -14.2981   20.6752 C.3         1 MOL       0.1338
     32 C17        15.9647  -13.0265   20.8679 C.2         1 MOL       0.2037
     33 O18        15.8287  -12.5738   22.0002 O.2         1 MOL      -0.3944
     34 C34        15.8876  -15.3548   19.8557 C.3         1 MOL      -0.0104
     35 C1         15.2047  -16.2249   20.9126 C.3         1 MOL      -0.0281
     36 C2         16.1633  -16.1529   22.1110 C.3         1 MOL       0.0369
     37 N19        15.5093  -12.3514   19.8140 N.am        1 MOL      -0.2737
     38 C20        14.9109  -11.0464   19.8067 C.3         1 MOL       0.0645
     39 C21        13.8174  -10.8679   20.8031 C.ar        1 MOL      -0.0210
     40 C26        12.6868  -11.7136   20.7857 C.ar        1 MOL      -0.0584
     41 C25        11.7317  -11.6528   21.8176 C.ar        1 MOL      -0.0633
     42 C24        11.8616  -10.7265   22.8816 C.ar        1 MOL       0.0188
     43 C27        10.9379  -10.6943   23.9253 C.cat       1 MOL       0.2318
     44 N29        10.5466   -9.5925   24.4413 N.pl3       1 MOL      -0.2729
     45 N28        10.4386  -11.7633   24.4171 N.pl3       1 MOL      -0.2729
     46 C23        12.9666   -9.8417   22.8619 C.ar        1 MOL      -0.0633
     47 C22        13.9315   -9.9165   21.8419 C.ar        1 MOL      -0.0584
     48 H1         23.4789  -20.9289   18.5058 H           1 MOL       0.0578
     49 H2         22.6328  -21.4930   19.9507 H           1 MOL       0.0578
     50 H3         23.8653  -20.2096   20.0726 H           1 MOL       0.0578
     51 H4         21.8882  -16.6786   22.5886 H           1 MOL       0.0610
     52 H5         18.8351  -19.5838   22.3891 H           1 MOL       0.0614
     53 H6         22.8739  -17.5784   20.5840 H           1 MOL       0.0542
     54 H7         20.2327  -15.2276   24.0517 H           1 MOL       0.1706
     55 H8         21.1424  -11.6497   26.7395 H           1 MOL       0.0704
     56 H9         21.4913  -12.9115   27.9109 H           1 MOL       0.0704
     57 H10        22.2887  -15.2281   26.8848 H           1 MOL       0.0584
     58 H11        24.0510  -16.1554   25.5474 H           1 MOL       0.0701
     59 H12        24.4787  -12.4434   23.5563 H           1 MOL       0.0701
     60 H13        22.7033  -11.5334   24.8871 H           1 MOL       0.0584
     61 H14        17.3964  -15.8209   24.3788 H           1 MOL       0.0779
     62 H15        17.8358  -14.5407   26.1878 H           1 MOL       0.0547
     63 H16        17.2381  -13.3509   25.0564 H           1 MOL       0.0547
     64 H17        19.6527  -13.9751   27.2516 H           1 MOL       0.1881
     65 H18        17.5943  -14.0806   20.1268 H           1 MOL       0.0802
     66 H19        16.5918  -15.9696   19.2846 H           1 MOL       0.0313
     67 H20        15.1597  -14.9303   19.1596 H           1 MOL       0.0313
     68 H21        15.0624  -17.2500   20.5630 H           1 MOL       0.0287
     69 H22        14.2346  -15.7967   21.1776 H           1 MOL       0.0287
     70 H23        15.5752  -16.0961   23.0302 H           1 MOL       0.0524
     71 H24        16.7998  -17.0427   22.1375 H           1 MOL       0.0524
     72 H25        15.6212  -12.7740   18.9466 H           1 MOL       0.1878
     73 H26        14.5061  -10.8653   18.8087 H           1 MOL       0.0683
     74 H27        15.7111  -10.3175   19.9614 H           1 MOL       0.0683
     75 H28        12.5720  -12.4049   20.0401 H           1 MOL       0.0557
     76 H29        10.9324  -12.2889   21.7796 H           1 MOL       0.0599
     77 H30         9.9154   -9.5970   25.1317 H           1 MOL       0.3180
     78 H31        10.8644   -8.7747   24.1154 H           1 MOL       0.3180
     79 H32        10.6943  -12.6087   24.1026 H           1 MOL       0.3180
     80 H33         9.8150  -11.7063   25.1121 H           1 MOL       0.3180
     81 H34        13.1059   -9.1631   23.6169 H           1 MOL       0.0599
     82 H35        14.7402   -9.2931   21.8851 H           1 MOL       0.0557
@<TRIPOS>BOND
     1     1     3   1
     2     1     7   2
     3     1     8   2
     4    14     1  am
     5    12     2   1
     6     3     9  ar
     7     3    10  ar
     8     5     4   1
     9     6     5   1
    10    11     6  ar
    11    12     6  ar
    12     9    11  ar
    13    10    12  ar
    14    13    15   2
    15    25    13   1
    16    13    30  am
    17    25    14   1
    18    16    17   1
    19    29    16   1
    20    17    18  ar
    21    17    22  ar
    22    18    19  ar
    23    19    20  ar
    24    21    20  ar
    25    20    23   1
    26    22    21  ar
    27    23    24   3
    28    26    25   1
    29    27    26   1
    30    27    28   2
    31    27    29  am
    32    30    31   1
    33    30    36   1
    34    31    32   1
    35    31    34   1
    36    32    33   2
    37    32    37  am
    38    34    35   1
    39    35    36   1
    40    37    38   1
    41    38    39   1
    42    39    40  ar
    43    39    47  ar
    44    40    41  ar
    45    41    42  ar
    46    42    43   1
    47    42    46  ar
    48    43    44  ar
    49    43    45  ar
    50    46    47  ar
    51     4    48   1
    52     4    49   1
    53     4    50   1
    54     9    51   1
    55    10    52   1
    56    11    53   1
    57    14    54   1
    58    16    55   1
    59    16    56   1
    60    18    57   1
    61    19    58   1
    62    21    59   1
    63    22    60   1
    64    25    61   1
    65    26    62   1
    66    26    63   1
    67    29    64   1
    68    31    65   1
    69    34    66   1
    70    34    67   1
    71    35    68   1
    72    35    69   1
    73    36    70   1
    74    36    71   1
    75    37    72   1
    76    38    73   1
    77    38    74   1
    78    40    75   1
    79    41    76   1
    80    44    77   1
    81    44    78   1
    82    45    79   1
    83    45    80   1
    84    46    81   1
    85    47    82   1
@<TRIPOS>SUBSTRUCTURE
     1  MOL      2

