@<TRIPOS>MOLECULE
3utu_ligand_033
    82    85
SMALL
GAST_HUCK
****
This file was generated by PARSER (from files_GN.cpp)

@<TRIPOS>ATOM
      1 S8         13.6412  -18.5148   21.6108 S.o2        1 MOL       0.0657
      2 CL         11.9449  -21.7305   17.5845 Cl          1 MOL      -0.0788
      3 C35        12.4705  -18.9294   20.3908 C.ar        1 MOL       0.0977
      4 C10         8.7016  -20.8205   17.7143 C.3         1 MOL       0.0596
      5 O9          9.6410  -19.7798   17.3977 O.3         1 MOL      -0.3203
      6 C5         10.5580  -19.5417   18.3883 C.ar        1 MOL       0.1052
      7 O1         13.0739  -18.9013   23.0415 O.2         1 MOL      -0.1516
      8 O10        14.9448  -19.3841   21.3330 O.2         1 MOL      -0.1516
      9 C7         11.3585  -18.0869   20.1855 C.ar        1 MOL      -0.0438
     10 C3         12.6275  -20.0711   19.5721 C.ar        1 MOL      -0.0300
     11 C6         10.4150  -18.3904   19.1874 C.ar        1 MOL      -0.0306
     12 C4         11.6838  -20.3742   18.5703 C.ar        1 MOL       0.0696
     13 C13        15.7810  -15.3479   20.9705 C.2         1 MOL       0.2048
     14 N11        13.9571  -16.8475   21.5557 N.am        1 MOL      -0.2244
     15 O14        16.4607  -14.4128   21.3859 O.2         1 MOL      -0.3945
     16 C15        19.8178  -16.9456   22.8181 C.3         1 MOL       0.0687
     17 C31        20.2267  -15.6448   22.2338 C.ar        1 MOL      -0.0116
     18 C32        19.8969  -15.3157   20.9027 C.ar        1 MOL      -0.0467
     19 C33        20.2388  -14.0631   20.3613 C.ar        1 MOL      -0.0334
     20 C44        20.9246  -13.1139   21.1491 C.ar        1 MOL       0.0883
     21 C8         21.2519  -13.4303   22.4871 C.ar        1 MOL      -0.0334
     22 C9         20.9004  -14.6840   23.0234 C.ar        1 MOL      -0.0467
     23 C40        21.2468  -11.9581   20.6465 C.1         1 MOL       0.0934
     24 N63        21.5272  -10.9376   20.1971 N.1         1 MOL      -0.3338
     25 C45        15.0902  -16.1122   22.0311 C.3         1 MOL       0.1430
     26 C12        16.0559  -16.7932   23.0724 C.3         1 MOL       0.0742
     27 C46        17.3683  -17.1870   22.5741 C.2         1 MOL       0.1821
     28 O22        17.4463  -17.7385   21.4855 O.2         1 MOL      -0.3967
     29 N14        18.4558  -16.8311   23.2420 N.am        1 MOL      -0.2739
     30 N15        15.7856  -15.5667   19.6368 N.am        1 MOL      -0.2500
     31 C16        16.4163  -14.6957   18.6626 C.3         1 MOL       0.1338
     32 C17        16.0377  -13.2841   18.7262 C.2         1 MOL       0.2037
     33 O18        16.8693  -12.4362   18.4357 O.2         1 MOL      -0.3944
     34 C34        16.0572  -15.3040   17.2819 C.3         1 MOL      -0.0104
     35 C1         15.8426  -16.7848   17.5913 C.3         1 MOL      -0.0281
     36 C2         15.2623  -16.7467   19.0104 C.3         1 MOL       0.0369
     37 N19        14.8180  -12.9510   19.1155 N.am        1 MOL      -0.2737
     38 C20        14.2735  -11.6303   19.2632 C.3         1 MOL       0.0645
     39 C21        13.4142  -11.4485   20.4673 C.ar        1 MOL      -0.0210
     40 C26        13.4327  -12.3310   21.5724 C.ar        1 MOL      -0.0584
     41 C25        12.5963  -12.1257   22.6817 C.ar        1 MOL      -0.0633
     42 C24        11.6994  -11.0296   22.7378 C.ar        1 MOL       0.0188
     43 C27        10.8398  -10.8507   23.8304 C.cat       1 MOL       0.2318
     44 N29        10.3837  -11.8332   24.5158 N.pl3       1 MOL      -0.2729
     45 N28        10.4399   -9.6958   24.2170 N.pl3       1 MOL      -0.2729
     46 C23        11.6986  -10.1341   21.6344 C.ar        1 MOL      -0.0633
     47 C22        12.5468  -10.3367   20.5281 C.ar        1 MOL      -0.0584
     48 H1          8.0026  -20.9093   16.8805 H           1 MOL       0.0578
     49 H2          8.1283  -20.5872   18.6148 H           1 MOL       0.0578
     50 H3          9.2007  -21.7839   17.8400 H           1 MOL       0.0578
     51 H4         11.2340  -17.2438   20.7495 H           1 MOL       0.0610
     52 H5         13.4381  -20.6821   19.6881 H           1 MOL       0.0614
     53 H6          9.6242  -17.7602   19.0384 H           1 MOL       0.0542
     54 H7         13.3145  -16.3178   21.0438 H           1 MOL       0.1706
     55 H8         20.4342  -17.1803   23.6866 H           1 MOL       0.0704
     56 H9         19.9581  -17.7564   22.0999 H           1 MOL       0.0704
     57 H10        19.3888  -15.9845   20.3181 H           1 MOL       0.0584
     58 H11        19.9849  -13.8524   19.3900 H           1 MOL       0.0701
     59 H12        21.7428  -12.7555   23.0817 H           1 MOL       0.0701
     60 H13        21.1355  -14.8895   23.9977 H           1 MOL       0.0584
     61 H14        14.5664  -15.3529   22.6124 H           1 MOL       0.0779
     62 H15        15.5929  -17.6673   23.5375 H           1 MOL       0.0547
     63 H16        16.2041  -16.0925   23.8986 H           1 MOL       0.0547
     64 H17        18.3173  -16.3727   24.0848 H           1 MOL       0.1881
     65 H18        17.4960  -14.7892   18.8078 H           1 MOL       0.0802
     66 H19        16.8505  -15.1657   16.5454 H           1 MOL       0.0313
     67 H20        15.1270  -14.8909   16.8785 H           1 MOL       0.0313
     68 H21        16.8001  -17.3100   17.5885 H           1 MOL       0.0287
     69 H22        15.1605  -17.2697   16.8892 H           1 MOL       0.0287
     70 H23        14.1736  -16.6974   18.9617 H           1 MOL       0.0524
     71 H24        15.5806  -17.6525   19.5257 H           1 MOL       0.0524
     72 H25        14.2226  -13.6805   19.3655 H           1 MOL       0.1878
     73 H26        13.6671  -11.4563   18.3729 H           1 MOL       0.0683
     74 H27        15.0518  -10.8655   19.2826 H           1 MOL       0.0683
     75 H28        14.0604  -13.1339   21.5862 H           1 MOL       0.0557
     76 H29        12.6631  -12.7901   23.4566 H           1 MOL       0.0599
     77 H30         9.7828  -11.6760   25.2134 H           1 MOL       0.3180
     78 H31        10.6062  -12.7149   24.2956 H           1 MOL       0.3180
     79 H32        10.7259   -8.9211   23.7795 H           1 MOL       0.3180
     80 H33         9.8595   -9.6226   24.9458 H           1 MOL       0.3180
     81 H34        11.0628   -9.3350   21.6090 H           1 MOL       0.0599
     82 H35        12.5099   -9.6696   19.7523 H           1 MOL       0.0557
@<TRIPOS>BOND
     1     1     3   1
     2     1     7   2
     3     1     8   2
     4    14     1  am
     5    12     2   1
     6     3     9  ar
     7     3    10  ar
     8     5     4   1
     9     6     5   1
    10    11     6  ar
    11    12     6  ar
    12     9    11  ar
    13    10    12  ar
    14    13    15   2
    15    25    13   1
    16    13    30  am
    17    25    14   1
    18    16    17   1
    19    29    16   1
    20    17    18  ar
    21    17    22  ar
    22    18    19  ar
    23    19    20  ar
    24    21    20  ar
    25    20    23   1
    26    22    21  ar
    27    23    24   3
    28    26    25   1
    29    27    26   1
    30    27    28   2
    31    27    29  am
    32    30    31   1
    33    30    36   1
    34    31    32   1
    35    31    34   1
    36    32    33   2
    37    32    37  am
    38    34    35   1
    39    35    36   1
    40    37    38   1
    41    38    39   1
    42    39    40  ar
    43    39    47  ar
    44    40    41  ar
    45    41    42  ar
    46    42    43   1
    47    42    46  ar
    48    43    44  ar
    49    43    45  ar
    50    46    47  ar
    51     4    48   1
    52     4    49   1
    53     4    50   1
    54     9    51   1
    55    10    52   1
    56    11    53   1
    57    14    54   1
    58    16    55   1
    59    16    56   1
    60    18    57   1
    61    19    58   1
    62    21    59   1
    63    22    60   1
    64    25    61   1
    65    26    62   1
    66    26    63   1
    67    29    64   1
    68    31    65   1
    69    34    66   1
    70    34    67   1
    71    35    68   1
    72    35    69   1
    73    36    70   1
    74    36    71   1
    75    37    72   1
    76    38    73   1
    77    38    74   1
    78    40    75   1
    79    41    76   1
    80    44    77   1
    81    44    78   1
    82    45    79   1
    83    45    80   1
    84    46    81   1
    85    47    82   1
@<TRIPOS>SUBSTRUCTURE
     1  MOL      2

