@<TRIPOS>MOLECULE
3utu_ligand_003
    82    85
SMALL
GAST_HUCK
****
This file was generated by PARSER (from files_GN.cpp)

@<TRIPOS>ATOM
      1 S8         20.1319  -13.4178   26.3003 S.o2        1 MOL       0.0657
      2 CL         25.0131  -12.3261   24.2310 Cl          1 MOL      -0.0788
      3 C35        21.7407  -13.9306   25.8734 C.ar        1 MOL       0.0977
      4 C10        25.6172  -15.5510   23.2244 C.3         1 MOL       0.0596
      5 O9         25.5240  -15.2649   24.6308 O.3         1 MOL      -0.3203
      6 C5         24.2931  -14.8089   25.0226 C.ar        1 MOL       0.1052
      7 O1         20.1385  -13.0595   27.8498 O.2         1 MOL      -0.1516
      8 O10        19.7380  -12.0783   25.5402 O.2         1 MOL      -0.1516
      9 C7         22.1107  -15.2830   26.0162 C.ar        1 MOL      -0.0438
     10 C3         22.6686  -13.0102   25.3380 C.ar        1 MOL      -0.0300
     11 C6         23.3815  -15.7159   25.5995 C.ar        1 MOL      -0.0306
     12 C4         23.9396  -13.4451   24.9117 C.ar        1 MOL       0.0696
     13 C13        18.1775  -13.9035   23.8898 C.2         1 MOL       0.2048
     14 N11        18.9229  -14.5741   26.0656 N.am        1 MOL      -0.2244
     15 O14        17.1500  -13.2916   24.1658 O.2         1 MOL      -0.3945
     16 C15        17.9838  -19.0165   27.0998 C.3         1 MOL       0.0687
     17 C31        17.4819  -19.1741   28.4900 C.ar        1 MOL      -0.0116
     18 C32        16.1022  -19.3425   28.7549 C.ar        1 MOL      -0.0467
     19 C33        15.6331  -19.4770   30.0764 C.ar        1 MOL      -0.0334
     20 C44        16.5378  -19.4398   31.1597 C.ar        1 MOL       0.0883
     21 C8         17.9171  -19.2850   30.9047 C.ar        1 MOL      -0.0334
     22 C9         18.3809  -19.1563   29.5824 C.ar        1 MOL      -0.0467
     23 C40        16.1073  -19.5319   32.3864 C.1         1 MOL       0.0934
     24 N63        15.7336  -19.6056   33.4701 N.1         1 MOL      -0.3338
     25 C45        18.5000  -15.0365   24.7746 C.3         1 MOL       0.1430
     26 C12        17.2897  -16.0151   24.9151 C.3         1 MOL       0.0742
     27 C46        17.6609  -17.3642   25.3157 C.2         1 MOL       0.1821
     28 O22        17.9089  -18.1794   24.4341 O.2         1 MOL      -0.3967
     29 N14        17.6957  -17.7073   26.5981 N.am        1 MOL      -0.2739
     30 N15        18.9191  -13.4865   22.8437 N.am        1 MOL      -0.2500
     31 C16        18.5629  -12.3726   21.9878 C.3         1 MOL       0.1338
     32 C17        17.2835  -12.4907   21.2945 C.2         1 MOL       0.2037
     33 O18        16.9356  -13.5887   20.8756 O.2         1 MOL      -0.3944
     34 C34        19.7152  -12.2444   20.9592 C.3         1 MOL      -0.0104
     35 C1         20.8848  -12.9730   21.6229 C.3         1 MOL      -0.0281
     36 C2         20.1981  -14.0342   22.4897 C.3         1 MOL       0.0369
     37 N19        16.5660  -11.3983   21.0634 N.am        1 MOL      -0.2737
     38 C20        15.3161  -11.3215   20.3742 C.3         1 MOL       0.0645
     39 C21        14.2316  -11.2166   21.3788 C.ar        1 MOL      -0.0210
     40 C26        13.9865   -9.9948   22.0397 C.ar        1 MOL      -0.0584
     41 C25        12.9769   -9.8960   23.0136 C.ar        1 MOL      -0.0633
     42 C24        12.1762  -11.0135   23.3688 C.ar        1 MOL       0.0188
     43 C27        11.1393  -10.9054   24.3115 C.cat       1 MOL       0.2318
     44 N29        10.6292   -9.7806   24.6444 N.pl3       1 MOL      -0.2729
     45 N28        10.6189  -11.9184   24.8898 N.pl3       1 MOL      -0.2729
     46 C23        12.4544  -12.2419   22.7134 C.ar        1 MOL      -0.0633
     47 C22        13.4581  -12.3417   21.7338 C.ar        1 MOL      -0.0584
     48 H1         26.6241  -15.9173   23.0238 H           1 MOL       0.0578
     49 H2         25.4554  -14.6541   22.6217 H           1 MOL       0.0578
     50 H3         24.9059  -16.3246   22.9228 H           1 MOL       0.0578
     51 H4         21.4571  -15.9615   26.4133 H           1 MOL       0.0610
     52 H5         22.4163  -12.0230   25.2417 H           1 MOL       0.0614
     53 H6         23.6371  -16.7007   25.6995 H           1 MOL       0.0542
     54 H7         18.3728  -14.8007   26.8312 H           1 MOL       0.1706
     55 H8         17.5196  -19.7629   26.4504 H           1 MOL       0.0704
     56 H9         19.0636  -19.1877   27.0695 H           1 MOL       0.0704
     57 H10        15.4289  -19.3750   27.9848 H           1 MOL       0.0584
     58 H11        14.6285  -19.5998   30.2365 H           1 MOL       0.0701
     59 H12        18.5962  -19.2620   31.6720 H           1 MOL       0.0701
     60 H13        19.3844  -19.0407   29.4228 H           1 MOL       0.0584
     61 H14        19.3183  -15.6244   24.3589 H           1 MOL       0.0779
     62 H15        16.7682  -16.0960   23.9564 H           1 MOL       0.0547
     63 H16        16.5719  -15.5926   25.6254 H           1 MOL       0.0547
     64 H17        17.5143  -17.0105   27.2487 H           1 MOL       0.1881
     65 H18        18.5623  -11.4713   22.6118 H           1 MOL       0.0802
     66 H19        19.9612  -11.1986   20.7535 H           1 MOL       0.0313
     67 H20        19.4863  -12.7446   20.0114 H           1 MOL       0.0313
     68 H21        21.4503  -12.2809   22.2531 H           1 MOL       0.0287
     69 H22        21.5581  -13.4201   20.8885 H           1 MOL       0.0287
     70 H23        20.0563  -14.9642   21.9327 H           1 MOL       0.0524
     71 H24        20.8367  -14.2212   23.3527 H           1 MOL       0.0524
     72 H25        16.9045  -10.5637   21.4300 H           1 MOL       0.1878
     73 H26        15.1572  -12.1783   19.7126 H           1 MOL       0.0683
     74 H27        15.3255  -10.4324   19.7389 H           1 MOL       0.0683
     75 H28        14.5467   -9.1676   21.8168 H           1 MOL       0.0557
     76 H29        12.8497   -8.9914   23.4737 H           1 MOL       0.0599
     77 H30         9.9276   -9.7493   25.2614 H           1 MOL       0.3180
     78 H31        10.9300   -8.9843   24.2593 H           1 MOL       0.3180
     79 H32        10.9207  -12.7853   24.7104 H           1 MOL       0.3180
     80 H33         9.9127  -11.7992   25.4909 H           1 MOL       0.3180
     81 H34        11.9140  -13.0842   22.9228 H           1 MOL       0.0599
     82 H35        13.6233  -13.2458   21.2842 H           1 MOL       0.0557
@<TRIPOS>BOND
     1     1     3   1
     2     1     7   2
     3     1     8   2
     4    14     1  am
     5    12     2   1
     6     3     9  ar
     7     3    10  ar
     8     5     4   1
     9     6     5   1
    10    11     6  ar
    11    12     6  ar
    12     9    11  ar
    13    10    12  ar
    14    13    15   2
    15    25    13   1
    16    13    30  am
    17    25    14   1
    18    16    17   1
    19    29    16   1
    20    17    18  ar
    21    17    22  ar
    22    18    19  ar
    23    19    20  ar
    24    21    20  ar
    25    20    23   1
    26    22    21  ar
    27    23    24   3
    28    26    25   1
    29    27    26   1
    30    27    28   2
    31    27    29  am
    32    30    31   1
    33    30    36   1
    34    31    32   1
    35    31    34   1
    36    32    33   2
    37    32    37  am
    38    34    35   1
    39    35    36   1
    40    37    38   1
    41    38    39   1
    42    39    40  ar
    43    39    47  ar
    44    40    41  ar
    45    41    42  ar
    46    42    43   1
    47    42    46  ar
    48    43    44  ar
    49    43    45  ar
    50    46    47  ar
    51     4    48   1
    52     4    49   1
    53     4    50   1
    54     9    51   1
    55    10    52   1
    56    11    53   1
    57    14    54   1
    58    16    55   1
    59    16    56   1
    60    18    57   1
    61    19    58   1
    62    21    59   1
    63    22    60   1
    64    25    61   1
    65    26    62   1
    66    26    63   1
    67    29    64   1
    68    31    65   1
    69    34    66   1
    70    34    67   1
    71    35    68   1
    72    35    69   1
    73    36    70   1
    74    36    71   1
    75    37    72   1
    76    38    73   1
    77    38    74   1
    78    40    75   1
    79    41    76   1
    80    44    77   1
    81    44    78   1
    82    45    79   1
    83    45    80   1
    84    46    81   1
    85    47    82   1
@<TRIPOS>SUBSTRUCTURE
     1  MOL      2

