@<TRIPOS>MOLECULE
3utu_ligand_079
    82    85
SMALL
GAST_HUCK
****
This file was generated by PARSER (from files_GN.cpp)

@<TRIPOS>ATOM
      1 S8         18.5397  -16.4490   23.6479 S.o2        1 MOL       0.0657
      2 CL         17.7948  -18.8589   28.4193 Cl          1 MOL      -0.0788
      3 C35        17.4946  -17.3007   24.7500 C.ar        1 MOL       0.0977
      4 C10        14.9013  -20.7345   27.2643 C.3         1 MOL       0.0596
      5 O9         14.9787  -19.3119   27.4526 O.3         1 MOL      -0.3203
      6 C5         15.8227  -18.6904   26.5678 C.ar        1 MOL       0.1052
      7 O1         19.4278  -17.5617   22.9299 O.2         1 MOL      -0.1516
      8 O10        17.6607  -15.6480   22.5909 O.2         1 MOL      -0.1516
      9 C7         16.1488  -17.5704   24.4199 C.ar        1 MOL      -0.0438
     10 C3         17.9976  -17.7378   25.9944 C.ar        1 MOL      -0.0300
     11 C6         15.3193  -18.2545   25.3251 C.ar        1 MOL      -0.0306
     12 C4         17.1673  -18.4147   26.9096 C.ar        1 MOL       0.0696
     13 C13        19.6450  -13.3789   23.2160 C.2         1 MOL       0.2048
     14 N11        19.5203  -15.3880   24.5192 N.am        1 MOL      -0.2244
     15 O14        18.7569  -12.8742   23.8972 O.2         1 MOL      -0.3945
     16 C15        24.6941  -17.1169   24.1169 C.3         1 MOL       0.0687
     17 C31        25.5930  -17.5692   23.0238 C.ar        1 MOL      -0.0116
     18 C32        25.0366  -18.0312   21.8105 C.ar        1 MOL      -0.0467
     19 C33        25.8602  -18.4045   20.7345 C.ar        1 MOL      -0.0334
     20 C44        27.2638  -18.3285   20.8539 C.ar        1 MOL       0.0883
     21 C8         27.8285  -17.8863   22.0711 C.ar        1 MOL      -0.0334
     22 C9         26.9995  -17.5125   23.1450 C.ar        1 MOL      -0.0467
     23 C40        28.0225  -18.6406   19.8435 C.1         1 MOL       0.0934
     24 N63        28.6868  -18.9141   18.9481 N.1         1 MOL      -0.3338
     25 C45        20.4052  -14.4050   23.9656 C.3         1 MOL       0.1430
     26 C12        21.6539  -15.0875   23.3184 C.3         1 MOL       0.0742
     27 C46        22.5230  -15.9438   24.1164 C.2         1 MOL       0.1821
     28 O22        22.1782  -16.3795   25.2104 O.2         1 MOL      -0.3967
     29 N14        23.6952  -16.2501   23.5714 N.am        1 MOL      -0.2739
     30 N15        19.7661  -12.9031   21.9502 N.am        1 MOL      -0.2500
     31 C16        18.9193  -11.8431   21.4282 C.3         1 MOL       0.1338
     32 C17        17.5781  -12.2935   21.0509 C.2         1 MOL       0.2037
     33 O18        17.4216  -13.4490   20.6699 O.2         1 MOL      -0.3944
     34 C34        19.6835  -11.2811   20.2053 C.3         1 MOL      -0.0104
     35 C1         20.4626  -12.4918   19.6840 C.3         1 MOL      -0.0281
     36 C2         20.7277  -13.3130   20.9590 C.3         1 MOL       0.0369
     37 N19        16.6037  -11.3948   20.9546 N.am        1 MOL      -0.2737
     38 C20        15.2997  -11.5975   20.4049 C.3         1 MOL       0.0645
     39 C21        14.2647  -11.4502   21.4597 C.ar        1 MOL      -0.0210
     40 C26        14.0042  -10.1867   22.0351 C.ar        1 MOL      -0.0584
     41 C25        12.9918  -10.0301   22.9996 C.ar        1 MOL      -0.0633
     42 C24        12.2024  -11.1291   23.4354 C.ar        1 MOL       0.0188
     43 C27        11.1589  -10.9671   24.3656 C.cat       1 MOL       0.2318
     44 N29        10.6094  -11.9486   24.9725 N.pl3       1 MOL      -0.2729
     45 N28        10.6573   -9.8272   24.6607 N.pl3       1 MOL      -0.2729
     46 C23        12.4997  -12.3954   22.8680 C.ar        1 MOL      -0.0633
     47 C22        13.5068  -12.5541   21.8987 C.ar        1 MOL      -0.0584
     48 H1         14.2143  -21.1367   28.0089 H           1 MOL       0.0578
     49 H2         15.8752  -21.2084   27.4078 H           1 MOL       0.0578
     50 H3         14.5149  -20.9850   26.2736 H           1 MOL       0.0578
     51 H4         15.7606  -17.2710   23.5232 H           1 MOL       0.0610
     52 H5         18.9716  -17.5534   26.2443 H           1 MOL       0.0614
     53 H6         14.3415  -18.4322   25.0802 H           1 MOL       0.0542
     54 H7         19.4821  -15.4568   25.4912 H           1 MOL       0.1706
     55 H8         25.2354  -16.5717   24.8958 H           1 MOL       0.0704
     56 H9         24.2196  -17.9894   24.5793 H           1 MOL       0.0704
     57 H10        24.0216  -18.0818   21.6924 H           1 MOL       0.0584
     58 H11        25.4239  -18.7127   19.8565 H           1 MOL       0.0701
     59 H12        28.8464  -17.8140   22.1771 H           1 MOL       0.0701
     60 H13        27.4327  -17.1777   24.0090 H           1 MOL       0.0584
     61 H14        20.8124  -13.8735   24.8351 H           1 MOL       0.0779
     62 H15        22.2899  -14.2857   22.9161 H           1 MOL       0.0547
     63 H16        21.3013  -15.7167   22.4989 H           1 MOL       0.0547
     64 H17        23.8828  -15.8574   22.6986 H           1 MOL       0.1881
     65 H18        18.8383  -11.0263   22.1575 H           1 MOL       0.0802
     66 H19        20.3895  -10.4996   20.5180 H           1 MOL       0.0313
     67 H20        19.0260  -10.8697   19.4322 H           1 MOL       0.0313
     68 H21        21.3926  -12.1936   19.1828 H           1 MOL       0.0287
     69 H22        19.8444  -13.0581   18.9766 H           1 MOL       0.0287
     70 H23        20.6162  -14.3641   20.7075 H           1 MOL       0.0524
     71 H24        21.7406  -13.1038   21.3104 H           1 MOL       0.0524
     72 H25        16.8120  -10.4930   21.2520 H           1 MOL       0.1878
     73 H26        15.2117  -12.5687   19.9103 H           1 MOL       0.0683
     74 H27        15.1417  -10.8395   19.6336 H           1 MOL       0.0683
     75 H28        14.5431   -9.3659   21.7434 H           1 MOL       0.0557
     76 H29        12.8468   -9.0943   23.3833 H           1 MOL       0.0599
     77 H30         9.8978  -11.7907   25.5584 H           1 MOL       0.3180
     78 H31        10.8894  -12.8279   24.8264 H           1 MOL       0.3180
     79 H32        10.9707   -9.0438   24.2616 H           1 MOL       0.3180
     80 H33         9.9488   -9.7751   25.2692 H           1 MOL       0.3180
     81 H34        11.9687  -13.2287   23.1298 H           1 MOL       0.0599
     82 H35        13.6726  -13.4857   21.5080 H           1 MOL       0.0557
@<TRIPOS>BOND
     1     1     3   1
     2     1     7   2
     3     1     8   2
     4    14     1  am
     5    12     2   1
     6     3     9  ar
     7     3    10  ar
     8     5     4   1
     9     6     5   1
    10    11     6  ar
    11    12     6  ar
    12     9    11  ar
    13    10    12  ar
    14    13    15   2
    15    25    13   1
    16    13    30  am
    17    25    14   1
    18    16    17   1
    19    29    16   1
    20    17    18  ar
    21    17    22  ar
    22    18    19  ar
    23    19    20  ar
    24    21    20  ar
    25    20    23   1
    26    22    21  ar
    27    23    24   3
    28    26    25   1
    29    27    26   1
    30    27    28   2
    31    27    29  am
    32    30    31   1
    33    30    36   1
    34    31    32   1
    35    31    34   1
    36    32    33   2
    37    32    37  am
    38    34    35   1
    39    35    36   1
    40    37    38   1
    41    38    39   1
    42    39    40  ar
    43    39    47  ar
    44    40    41  ar
    45    41    42  ar
    46    42    43   1
    47    42    46  ar
    48    43    44  ar
    49    43    45  ar
    50    46    47  ar
    51     4    48   1
    52     4    49   1
    53     4    50   1
    54     9    51   1
    55    10    52   1
    56    11    53   1
    57    14    54   1
    58    16    55   1
    59    16    56   1
    60    18    57   1
    61    19    58   1
    62    21    59   1
    63    22    60   1
    64    25    61   1
    65    26    62   1
    66    26    63   1
    67    29    64   1
    68    31    65   1
    69    34    66   1
    70    34    67   1
    71    35    68   1
    72    35    69   1
    73    36    70   1
    74    36    71   1
    75    37    72   1
    76    38    73   1
    77    38    74   1
    78    40    75   1
    79    41    76   1
    80    44    77   1
    81    44    78   1
    82    45    79   1
    83    45    80   1
    84    46    81   1
    85    47    82   1
@<TRIPOS>SUBSTRUCTURE
     1  MOL      2

