@<TRIPOS>MOLECULE
3utu_ligand_070
    82    85
SMALL
GAST_HUCK
****
This file was generated by PARSER (from files_GN.cpp)

@<TRIPOS>ATOM
      1 S8         14.5797  -17.0594   21.0927 S.o2        1 MOL       0.0657
      2 CL         13.5018  -17.8727   15.8658 Cl          1 MOL      -0.0788
      3 C35        13.4551  -17.5601   19.8515 C.ar        1 MOL       0.0977
      4 C10         9.9937  -17.8692   16.3221 C.3         1 MOL       0.0596
      5 O9         10.8445  -18.9034   16.8437 O.3         1 MOL      -0.3203
      6 C5         11.7014  -18.4469   17.8060 C.ar        1 MOL       0.1052
      7 O1         13.9703  -17.3681   22.5313 O.2         1 MOL      -0.1516
      8 O10        15.8838  -17.9312   20.8081 O.2         1 MOL      -0.1516
      9 C7         12.1878  -18.0911   20.1760 C.ar        1 MOL      -0.0438
     10 C3         13.8459  -17.4937   18.4945 C.ar        1 MOL      -0.0300
     11 C6         11.3207  -18.5366   19.1610 C.ar        1 MOL      -0.0306
     12 C4         12.9774  -17.9378   17.4734 C.ar        1 MOL       0.0696
     13 C13        15.9745  -13.3151   21.3179 C.2         1 MOL       0.2048
     14 N11        14.9544  -15.4232   20.9416 N.am        1 MOL      -0.2244
     15 O14        15.9034  -12.4004   22.1373 O.2         1 MOL      -0.3945
     16 C15        16.1162  -17.9179   24.9433 C.3         1 MOL       0.0687
     17 C31        15.2101  -18.9602   24.3907 C.ar        1 MOL      -0.0116
     18 C32        15.5665  -19.6715   23.2231 C.ar        1 MOL      -0.0467
     19 C33        14.6837  -20.6065   22.6505 C.ar        1 MOL      -0.0334
     20 C44        13.4179  -20.8343   23.2332 C.ar        1 MOL       0.0883
     21 C8         13.0730  -20.1697   24.4262 C.ar        1 MOL      -0.0334
     22 C9         13.9694  -19.2537   25.0083 C.ar        1 MOL      -0.0467
     23 C40        12.5689  -21.6434   22.6648 C.1         1 MOL       0.0934
     24 N63        11.8214  -22.3646   22.1689 N.1         1 MOL      -0.3338
     25 C45        15.7342  -14.6589   21.8753 C.3         1 MOL       0.1430
     26 C12        17.0842  -15.2629   22.3911 C.3         1 MOL       0.0742
     27 C46        17.0581  -16.5202   23.1327 C.2         1 MOL       0.1821
     28 O22        17.9646  -17.3164   22.9193 O.2         1 MOL      -0.3967
     29 N14        16.1689  -16.7634   24.0920 N.am        1 MOL      -0.2739
     30 N15        16.3348  -13.0016   20.0487 N.am        1 MOL      -0.2500
     31 C16        16.6426  -11.6509   19.6258 C.3         1 MOL       0.1338
     32 C17        15.4511  -10.8063   19.5860 C.2         1 MOL       0.2037
     33 O18        14.4798  -11.1480   18.9197 O.2         1 MOL      -0.3944
     34 C34        17.3189  -11.8005   18.2416 C.3         1 MOL      -0.0104
     35 C1         16.7482  -13.1149   17.7027 C.3         1 MOL      -0.0281
     36 C2         16.4877  -13.9449   18.9714 C.3         1 MOL       0.0369
     37 N19        15.4168   -9.6876   20.3039 N.am        1 MOL      -0.2737
     38 C20        14.3207   -8.7790   20.4444 C.3         1 MOL       0.0645
     39 C21        13.4040   -9.2440   21.5142 C.ar        1 MOL      -0.0210
     40 C26        13.3782   -8.6126   22.7753 C.ar        1 MOL      -0.0584
     41 C25        12.5922   -9.1318   23.8182 C.ar        1 MOL      -0.0633
     42 C24        11.7928  -10.2871   23.6325 C.ar        1 MOL       0.0188
     43 C27        11.0772  -10.8537   24.6907 C.cat       1 MOL       0.2318
     44 N29        11.5669  -10.9374   25.8693 N.pl3       1 MOL      -0.2729
     45 N28         9.9022  -11.3398   24.5435 N.pl3       1 MOL      -0.2729
     46 C23        11.7693  -10.8713   22.3385 C.ar        1 MOL      -0.0633
     47 C22        12.5744  -10.3656   21.2978 C.ar        1 MOL      -0.0584
     48 H1          9.3380  -18.3118   15.5700 H           1 MOL       0.0578
     49 H2         10.5802  -17.0819   15.8434 H           1 MOL       0.0578
     50 H3          9.3677  -17.4323   17.1037 H           1 MOL       0.0578
     51 H4         11.8868  -18.1749   21.1511 H           1 MOL       0.0610
     52 H5         14.7711  -17.1370   18.2484 H           1 MOL       0.0614
     53 H6         10.4107  -18.9295   19.4095 H           1 MOL       0.0542
     54 H7         14.3313  -14.9193   20.3966 H           1 MOL       0.1706
     55 H8         17.1105  -18.3451   25.1122 H           1 MOL       0.0704
     56 H9         15.7615  -17.5819   25.9217 H           1 MOL       0.0704
     57 H10        16.4625  -19.5018   22.7658 H           1 MOL       0.0584
     58 H11        14.9590  -21.0855   21.7866 H           1 MOL       0.0701
     59 H12        12.1636  -20.3258   24.8738 H           1 MOL       0.0701
     60 H13        13.6873  -18.7662   25.8603 H           1 MOL       0.0584
     61 H14        15.0849  -14.5479   22.7509 H           1 MOL       0.0779
     62 H15        17.5525  -14.5363   23.0642 H           1 MOL       0.0547
     63 H16        17.7589  -15.3715   21.5367 H           1 MOL       0.0547
     64 H17        15.4787  -16.0929   24.2346 H           1 MOL       0.1881
     65 H18        17.3898  -11.2249   20.3047 H           1 MOL       0.0802
     66 H19        18.4017  -11.8990   18.3614 H           1 MOL       0.0313
     67 H20        17.1190  -10.9654   17.5638 H           1 MOL       0.0313
     68 H21        17.4375  -13.6109   17.0168 H           1 MOL       0.0287
     69 H22        15.8080  -12.9208   17.1757 H           1 MOL       0.0287
     70 H23        15.5916  -14.5377   18.7988 H           1 MOL       0.0524
     71 H24        17.3330  -14.6052   19.1689 H           1 MOL       0.0524
     72 H25        16.2179   -9.4758   20.8127 H           1 MOL       0.1878
     73 H26        13.7718   -8.6515   19.5072 H           1 MOL       0.0683
     74 H27        14.7474   -7.8034   20.6917 H           1 MOL       0.0683
     75 H28        13.9503   -7.7854   22.9542 H           1 MOL       0.0557
     76 H29        12.6169   -8.6563   24.7266 H           1 MOL       0.0599
     77 H30        11.0714  -11.3249   26.5591 H           1 MOL       0.3180
     78 H31        12.4411  -10.6581   26.0316 H           1 MOL       0.3180
     79 H32         9.4622  -11.3004   23.7197 H           1 MOL       0.3180
     80 H33         9.4668  -11.7091   25.2795 H           1 MOL       0.3180
     81 H34        11.2044  -11.7058   22.1527 H           1 MOL       0.0599
     82 H35        12.5703  -10.8361   20.3855 H           1 MOL       0.0557
@<TRIPOS>BOND
     1     1     3   1
     2     1     7   2
     3     1     8   2
     4    14     1  am
     5    12     2   1
     6     3     9  ar
     7     3    10  ar
     8     5     4   1
     9     6     5   1
    10    11     6  ar
    11    12     6  ar
    12     9    11  ar
    13    10    12  ar
    14    13    15   2
    15    25    13   1
    16    13    30  am
    17    25    14   1
    18    16    17   1
    19    29    16   1
    20    17    18  ar
    21    17    22  ar
    22    18    19  ar
    23    19    20  ar
    24    21    20  ar
    25    20    23   1
    26    22    21  ar
    27    23    24   3
    28    26    25   1
    29    27    26   1
    30    27    28   2
    31    27    29  am
    32    30    31   1
    33    30    36   1
    34    31    32   1
    35    31    34   1
    36    32    33   2
    37    32    37  am
    38    34    35   1
    39    35    36   1
    40    37    38   1
    41    38    39   1
    42    39    40  ar
    43    39    47  ar
    44    40    41  ar
    45    41    42  ar
    46    42    43   1
    47    42    46  ar
    48    43    44  ar
    49    43    45  ar
    50    46    47  ar
    51     4    48   1
    52     4    49   1
    53     4    50   1
    54     9    51   1
    55    10    52   1
    56    11    53   1
    57    14    54   1
    58    16    55   1
    59    16    56   1
    60    18    57   1
    61    19    58   1
    62    21    59   1
    63    22    60   1
    64    25    61   1
    65    26    62   1
    66    26    63   1
    67    29    64   1
    68    31    65   1
    69    34    66   1
    70    34    67   1
    71    35    68   1
    72    35    69   1
    73    36    70   1
    74    36    71   1
    75    37    72   1
    76    38    73   1
    77    38    74   1
    78    40    75   1
    79    41    76   1
    80    44    77   1
    81    44    78   1
    82    45    79   1
    83    45    80   1
    84    46    81   1
    85    47    82   1
@<TRIPOS>SUBSTRUCTURE
     1  MOL      2

