@<TRIPOS>MOLECULE
3utu_ligand_032
    82    85
SMALL
GAST_HUCK
****
This file was generated by PARSER (from files_GN.cpp)

@<TRIPOS>ATOM
      1 S8         18.7443  -15.5838   26.4972 S.o2        1 MOL       0.0657
      2 CL         14.7559  -19.1427   25.6366 Cl          1 MOL      -0.0788
      3 C35        17.8126  -16.9590   27.0130 C.ar        1 MOL       0.0977
      4 C10        14.5868  -19.7935   29.5789 C.3         1 MOL       0.0596
      5 O9         15.3685  -20.1027   28.4119 O.3         1 MOL      -0.3203
      6 C5         16.1459  -19.0624   27.9596 C.ar        1 MOL       0.1052
      7 O1         18.6798  -14.5131   27.6741 O.2         1 MOL      -0.1516
      8 O10        20.3061  -15.8943   26.4285 O.2         1 MOL      -0.1516
      9 C7         17.9985  -17.4976   28.3054 C.ar        1 MOL      -0.0438
     10 C3         16.7963  -17.4957   26.1925 C.ar        1 MOL      -0.0300
     11 C6         17.1776  -18.5486   28.7728 C.ar        1 MOL      -0.0306
     12 C4         15.9710  -18.5411   26.6567 C.ar        1 MOL       0.0696
     13 C13        18.1849  -13.5540   23.0517 C.2         1 MOL       0.2048
     14 N11        18.2044  -14.7531   25.1280 N.am        1 MOL      -0.2244
     15 O14        17.0409  -13.2621   23.3894 O.2         1 MOL      -0.3945
     16 C15        22.4001  -17.6451   24.0937 C.3         1 MOL       0.0687
     17 C31        22.7822  -17.8313   25.5168 C.ar        1 MOL      -0.0116
     18 C32        22.6338  -19.0887   26.1465 C.ar        1 MOL      -0.0467
     19 C33        22.9434  -19.2522   27.5066 C.ar        1 MOL      -0.0334
     20 C44        23.4082  -18.1580   28.2674 C.ar        1 MOL       0.0883
     21 C8         23.5698  -16.9010   27.6465 C.ar        1 MOL      -0.0334
     22 C9         23.2603  -16.7416   26.2832 C.ar        1 MOL      -0.0467
     23 C40        23.6774  -18.3085   29.5337 C.1         1 MOL       0.0934
     24 N63        23.9106  -18.4443   30.6502 N.1         1 MOL      -0.3338
     25 C45        18.9088  -14.5434   23.8894 C.3         1 MOL       0.1430
     26 C12        19.1577  -15.9110   23.1469 C.3         1 MOL       0.0742
     27 C46        20.5562  -16.3213   23.1105 C.2         1 MOL       0.1821
     28 O22        21.2687  -15.9283   22.1954 O.2         1 MOL      -0.3967
     29 N14        21.0519  -17.1544   24.0181 N.am        1 MOL      -0.2739
     30 N15        18.6735  -12.9162   21.9686 N.am        1 MOL      -0.2500
     31 C16        17.9632  -11.8486   21.2844 C.3         1 MOL       0.1338
     32 C17        16.7809  -12.2913   20.5467 C.2         1 MOL       0.2037
     33 O18        16.5722  -13.4890   20.3829 O.2         1 MOL      -0.3944
     34 C34        19.0075  -11.1689   20.3705 C.3         1 MOL      -0.0104
     35 C1         20.0890  -12.2384   20.1615 C.3         1 MOL      -0.0281
     36 C2         19.9618  -13.1515   21.3916 C.3         1 MOL       0.0369
     37 N19        15.9317  -11.3727   20.1019 N.am        1 MOL      -0.2737
     38 C20        14.6492  -11.5992   19.4992 C.3         1 MOL       0.0645
     39 C21        13.6096  -11.4526   20.5535 C.ar        1 MOL      -0.0210
     40 C26        12.6675  -10.4020   20.5223 C.ar        1 MOL      -0.0584
     41 C25        11.7511  -10.2324   21.5748 C.ar        1 MOL      -0.0633
     42 C24        11.7333  -11.1102   22.6921 C.ar        1 MOL       0.0188
     43 C27        10.8446  -10.9209   23.7563 C.cat       1 MOL       0.2318
     44 N29        10.4898   -9.7598   24.1612 N.pl3       1 MOL      -0.2729
     45 N28        10.3282  -11.8976   24.4042 N.pl3       1 MOL      -0.2729
     46 C23        12.6656  -12.1823   22.6908 C.ar        1 MOL      -0.0633
     47 C22        13.5876  -12.3477   21.6456 C.ar        1 MOL      -0.0584
     48 H1         13.9295  -20.6414   29.7780 H           1 MOL       0.0578
     49 H2         13.9589  -18.9121   29.4334 H           1 MOL       0.0578
     50 H3         15.2264  -19.6440   30.4496 H           1 MOL       0.0578
     51 H4         18.7212  -17.1301   28.9207 H           1 MOL       0.0610
     52 H5         16.6452  -17.1135   25.2569 H           1 MOL       0.0614
     53 H6         17.3256  -18.9326   29.7085 H           1 MOL       0.0542
     54 H7         17.3314  -14.3404   25.2192 H           1 MOL       0.1706
     55 H8         22.4415  -18.5979   23.5551 H           1 MOL       0.0704
     56 H9         23.1128  -16.9704   23.6104 H           1 MOL       0.0704
     57 H10        22.2831  -19.8926   25.6182 H           1 MOL       0.0584
     58 H11        22.8133  -20.1738   27.9360 H           1 MOL       0.0701
     59 H12        23.8997  -16.0904   28.1798 H           1 MOL       0.0701
     60 H13        23.3704  -15.8193   25.8546 H           1 MOL       0.0584
     61 H14        19.8639  -14.0831   24.1613 H           1 MOL       0.0779
     62 H15        18.7878  -15.8654   22.1201 H           1 MOL       0.0547
     63 H16        18.5758  -16.7005   23.6317 H           1 MOL       0.0547
     64 H17        20.4371  -17.4785   24.6915 H           1 MOL       0.1881
     65 H18        17.6487  -11.1161   22.0339 H           1 MOL       0.0802
     66 H19        19.4378  -10.2959   20.8742 H           1 MOL       0.0313
     67 H20        18.5922  -10.8360   19.4180 H           1 MOL       0.0313
     68 H21        21.0815  -11.7842   20.0764 H           1 MOL       0.0287
     69 H22        19.8761  -12.7950   19.2407 H           1 MOL       0.0287
     70 H23        20.0513  -14.1845   21.0525 H           1 MOL       0.0524
     71 H24        20.7618  -12.9308   22.1033 H           1 MOL       0.0524
     72 H25        16.1619  -10.4428   20.2770 H           1 MOL       0.1878
     73 H26        14.5602  -12.5912   19.0451 H           1 MOL       0.0683
     74 H27        14.5209  -10.8655   18.6973 H           1 MOL       0.0683
     75 H28        12.6608   -9.7357   19.7445 H           1 MOL       0.0557
     76 H29        11.0921   -9.4556   21.5078 H           1 MOL       0.0599
     77 H30         9.9006   -9.6738   24.8814 H           1 MOL       0.3180
     78 H31        10.8244   -8.9884   23.7514 H           1 MOL       0.3180
     79 H32        10.5208  -12.7820   24.1711 H           1 MOL       0.3180
     80 H33         9.7281  -11.7323   25.0993 H           1 MOL       0.3180
     81 H34        12.7040  -12.8435   23.4684 H           1 MOL       0.0599
     82 H35        14.2591  -13.1213   21.6965 H           1 MOL       0.0557
@<TRIPOS>BOND
     1     1     3   1
     2     1     7   2
     3     1     8   2
     4    14     1  am
     5    12     2   1
     6     3     9  ar
     7     3    10  ar
     8     5     4   1
     9     6     5   1
    10    11     6  ar
    11    12     6  ar
    12     9    11  ar
    13    10    12  ar
    14    13    15   2
    15    25    13   1
    16    13    30  am
    17    25    14   1
    18    16    17   1
    19    29    16   1
    20    17    18  ar
    21    17    22  ar
    22    18    19  ar
    23    19    20  ar
    24    21    20  ar
    25    20    23   1
    26    22    21  ar
    27    23    24   3
    28    26    25   1
    29    27    26   1
    30    27    28   2
    31    27    29  am
    32    30    31   1
    33    30    36   1
    34    31    32   1
    35    31    34   1
    36    32    33   2
    37    32    37  am
    38    34    35   1
    39    35    36   1
    40    37    38   1
    41    38    39   1
    42    39    40  ar
    43    39    47  ar
    44    40    41  ar
    45    41    42  ar
    46    42    43   1
    47    42    46  ar
    48    43    44  ar
    49    43    45  ar
    50    46    47  ar
    51     4    48   1
    52     4    49   1
    53     4    50   1
    54     9    51   1
    55    10    52   1
    56    11    53   1
    57    14    54   1
    58    16    55   1
    59    16    56   1
    60    18    57   1
    61    19    58   1
    62    21    59   1
    63    22    60   1
    64    25    61   1
    65    26    62   1
    66    26    63   1
    67    29    64   1
    68    31    65   1
    69    34    66   1
    70    34    67   1
    71    35    68   1
    72    35    69   1
    73    36    70   1
    74    36    71   1
    75    37    72   1
    76    38    73   1
    77    38    74   1
    78    40    75   1
    79    41    76   1
    80    44    77   1
    81    44    78   1
    82    45    79   1
    83    45    80   1
    84    46    81   1
    85    47    82   1
@<TRIPOS>SUBSTRUCTURE
     1  MOL      2

