@<TRIPOS>MOLECULE
3utu_ligand_086
    82    85
SMALL
GAST_HUCK
****
This file was generated by PARSER (from files_GN.cpp)

@<TRIPOS>ATOM
      1 S8         16.5869  -17.6661   25.1973 S.o2        1 MOL       0.0657
      2 CL         11.8984  -20.0580   23.9967 Cl          1 MOL      -0.0788
      3 C35        15.2750  -18.7361   25.6375 C.ar        1 MOL       0.0977
      4 C10        11.1325  -20.3241   27.8237 C.3         1 MOL       0.0596
      5 O9         11.9379  -21.0004   26.8383 O.3         1 MOL      -0.3203
      6 C5         13.0309  -20.2807   26.4417 C.ar        1 MOL       0.1052
      7 O1         16.9530  -17.0185   26.6007 O.2         1 MOL      -0.1516
      8 O10        17.8106  -18.5739   24.7439 O.2         1 MOL      -0.1516
      9 C7         15.2286  -19.3260   26.9231 C.ar        1 MOL      -0.0438
     10 C3         14.2307  -18.9985   24.7307 C.ar        1 MOL      -0.0300
     11 C6         14.1170  -20.0865   27.3255 C.ar        1 MOL      -0.0306
     12 C4         13.1144  -19.7666   25.1263 C.ar        1 MOL       0.0696
     13 C13        17.9901  -15.4658   22.7165 C.2         1 MOL       0.2048
     14 N11        16.1961  -16.4715   24.0607 N.am        1 MOL      -0.2244
     15 O14        18.3210  -16.6323   22.5301 O.2         1 MOL      -0.3945
     16 C15        20.4417  -16.4408   26.0944 C.3         1 MOL       0.0687
     17 C31        21.6697  -15.7001   25.7216 C.ar        1 MOL      -0.0116
     18 C32        21.9609  -14.4620   26.3369 C.ar        1 MOL      -0.0467
     19 C33        23.0698  -13.7044   25.9221 C.ar        1 MOL      -0.0334
     20 C44        23.9102  -14.1775   24.8944 C.ar        1 MOL       0.0883
     21 C8         23.6436  -15.4233   24.2923 C.ar        1 MOL      -0.0334
     22 C9         22.5279  -16.1748   24.7013 C.ar        1 MOL      -0.0467
     23 C40        24.9217  -13.4653   24.5077 C.1         1 MOL       0.0934
     24 N63        25.8213  -12.8327   24.1741 N.1         1 MOL      -0.3338
     25 C45        16.9451  -15.2651   23.7454 C.3         1 MOL       0.1430
     26 C12        17.3636  -14.4753   25.0374 C.3         1 MOL       0.0742
     27 C46        18.5807  -14.8480   25.7565 C.2         1 MOL       0.1821
     28 O22        18.8540  -14.2099   26.7660 O.2         1 MOL      -0.3967
     29 N14        19.3186  -15.8954   25.4030 N.am        1 MOL      -0.2739
     30 N15        18.6118  -14.5208   21.9767 N.am        1 MOL      -0.2500
     31 C16        18.3320  -13.0980   21.9427 C.3         1 MOL       0.1338
     32 C17        17.1255  -12.7285   21.1997 C.2         1 MOL       0.2037
     33 O18        16.5400  -13.5706   20.5288 O.2         1 MOL      -0.3944
     34 C34        19.6027  -12.4812   21.3033 C.3         1 MOL      -0.0104
     35 C1         20.0755  -13.5702   20.3326 C.3         1 MOL      -0.0281
     36 C2         19.6783  -14.8626   21.0611 C.3         1 MOL       0.0369
     37 N19        16.6860  -11.4719   21.2467 N.am        1 MOL      -0.2737
     38 C20        15.5349  -10.9392   20.5861 C.3         1 MOL       0.0645
     39 C21        14.4023  -10.8737   21.5422 C.ar        1 MOL      -0.0210
     40 C26        13.9267   -9.6470   22.0523 C.ar        1 MOL      -0.0584
     41 C25        12.8677   -9.6163   22.9799 C.ar        1 MOL      -0.0633
     42 C24        12.2343  -10.8062   23.4339 C.ar        1 MOL       0.0188
     43 C27        11.1659  -10.7808   24.3505 C.cat       1 MOL       0.2318
     44 N29        10.5725  -11.8304   24.7701 N.pl3       1 MOL      -0.2729
     45 N28        10.6917   -9.6922   24.8400 N.pl3       1 MOL      -0.2729
     46 C23        12.7227  -12.0296   22.9011 C.ar        1 MOL      -0.0633
     47 C22        13.7816  -12.0637   21.9776 C.ar        1 MOL      -0.0584
     48 H1         10.2133  -20.8947   27.9621 H           1 MOL       0.0578
     49 H2         10.8636  -19.3105   27.5094 H           1 MOL       0.0578
     50 H3         11.6493  -20.2802   28.7845 H           1 MOL       0.0578
     51 H4         15.9952  -19.1843   27.5945 H           1 MOL       0.0610
     52 H5         14.2726  -18.6222   23.7814 H           1 MOL       0.0614
     53 H6         14.0896  -20.4819   28.2683 H           1 MOL       0.0542
     54 H7         15.5560  -16.7440   23.3814 H           1 MOL       0.1706
     55 H8         20.2933  -16.4387   27.1832 H           1 MOL       0.0704
     56 H9         20.5340  -17.4847   25.7881 H           1 MOL       0.0704
     57 H10        21.3558  -14.0989   27.0783 H           1 MOL       0.0584
     58 H11        23.2448  -12.8036   26.3747 H           1 MOL       0.0701
     59 H12        24.2422  -15.7872   23.5446 H           1 MOL       0.0701
     60 H13        22.3366  -17.0651   24.2357 H           1 MOL       0.0584
     61 H14        16.1913  -14.6400   23.2510 H           1 MOL       0.0779
     62 H15        16.5323  -14.5529   25.7476 H           1 MOL       0.0547
     63 H16        17.4354  -13.4157   24.7978 H           1 MOL       0.0547
     64 H17        19.0400  -16.3923   24.6279 H           1 MOL       0.1881
     65 H18        18.2662  -12.6894   22.9479 H           1 MOL       0.0802
     66 H19        20.3709  -12.3315   22.0686 H           1 MOL       0.0313
     67 H20        19.4335  -11.5295   20.7904 H           1 MOL       0.0313
     68 H21        21.1555  -13.5111   20.1451 H           1 MOL       0.0287
     69 H22        19.5391  -13.4804   19.3810 H           1 MOL       0.0287
     70 H23        19.3587  -15.6100   20.3322 H           1 MOL       0.0524
     71 H24        20.5315  -15.2491   21.6252 H           1 MOL       0.0524
     72 H25        17.1742  -10.8415   21.8049 H           1 MOL       0.1878
     73 H26        15.2412  -11.5298   19.7135 H           1 MOL       0.0683
     74 H27        15.8002   -9.9453   20.2175 H           1 MOL       0.0683
     75 H28        14.3553   -8.7636   21.7613 H           1 MOL       0.0557
     76 H29        12.5677   -8.6976   23.3161 H           1 MOL       0.0599
     77 H30         9.8590  -11.7513   25.3687 H           1 MOL       0.3180
     78 H31        10.8239  -12.6831   24.4814 H           1 MOL       0.3180
     79 H32        11.0447   -8.8638   24.6037 H           1 MOL       0.3180
     80 H33         9.9712   -9.7279   25.4315 H           1 MOL       0.3180
     81 H34        12.3179  -12.9269   23.1794 H           1 MOL       0.0599
     82 H35        14.0947  -12.9710   21.6203 H           1 MOL       0.0557
@<TRIPOS>BOND
     1     1     3   1
     2     1     7   2
     3     1     8   2
     4    14     1  am
     5    12     2   1
     6     3     9  ar
     7     3    10  ar
     8     5     4   1
     9     6     5   1
    10    11     6  ar
    11    12     6  ar
    12     9    11  ar
    13    10    12  ar
    14    13    15   2
    15    25    13   1
    16    13    30  am
    17    25    14   1
    18    16    17   1
    19    29    16   1
    20    17    18  ar
    21    17    22  ar
    22    18    19  ar
    23    19    20  ar
    24    21    20  ar
    25    20    23   1
    26    22    21  ar
    27    23    24   3
    28    26    25   1
    29    27    26   1
    30    27    28   2
    31    27    29  am
    32    30    31   1
    33    30    36   1
    34    31    32   1
    35    31    34   1
    36    32    33   2
    37    32    37  am
    38    34    35   1
    39    35    36   1
    40    37    38   1
    41    38    39   1
    42    39    40  ar
    43    39    47  ar
    44    40    41  ar
    45    41    42  ar
    46    42    43   1
    47    42    46  ar
    48    43    44  ar
    49    43    45  ar
    50    46    47  ar
    51     4    48   1
    52     4    49   1
    53     4    50   1
    54     9    51   1
    55    10    52   1
    56    11    53   1
    57    14    54   1
    58    16    55   1
    59    16    56   1
    60    18    57   1
    61    19    58   1
    62    21    59   1
    63    22    60   1
    64    25    61   1
    65    26    62   1
    66    26    63   1
    67    29    64   1
    68    31    65   1
    69    34    66   1
    70    34    67   1
    71    35    68   1
    72    35    69   1
    73    36    70   1
    74    36    71   1
    75    37    72   1
    76    38    73   1
    77    38    74   1
    78    40    75   1
    79    41    76   1
    80    44    77   1
    81    44    78   1
    82    45    79   1
    83    45    80   1
    84    46    81   1
    85    47    82   1
@<TRIPOS>SUBSTRUCTURE
     1  MOL      2

