@<TRIPOS>MOLECULE
3utu_ligand_029
    82    85
SMALL
GAST_HUCK
****
This file was generated by PARSER (from files_GN.cpp)

@<TRIPOS>ATOM
      1 S8         18.7309  -17.4131   22.0805 S.o2        1 MOL       0.0657
      2 CL         14.9010  -16.5692   18.3778 Cl          1 MOL      -0.0788
      3 C35        17.0546  -17.4997   21.6105 C.ar        1 MOL       0.0977
      4 C10        11.9558  -17.3000   21.2895 C.3         1 MOL       0.0596
      5 O9         13.0249  -17.6269   20.3859 O.3         1 MOL      -0.3203
      6 C5         14.3224  -17.5574   20.8387 C.ar        1 MOL       0.1052
      7 O1         19.0460  -18.7022   22.9569 O.2         1 MOL      -0.1516
      8 O10        19.7344  -17.5103   20.8496 O.2         1 MOL      -0.1516
      9 C7         16.0724  -17.9808   22.5026 C.ar        1 MOL      -0.0438
     10 C3         16.6648  -17.0767   20.3238 C.ar        1 MOL      -0.0300
     11 C6         14.7203  -18.0237   22.1131 C.ar        1 MOL      -0.0306
     12 C4         15.3095  -17.0943   19.9391 C.ar        1 MOL       0.0696
     13 C13        19.7667  -14.2795   21.6023 C.2         1 MOL       0.2048
     14 N11        19.1195  -16.0920   23.0577 N.am        1 MOL      -0.2244
     15 O14        20.8680  -14.8249   21.5549 O.2         1 MOL      -0.3945
     16 C15        16.6873  -15.5871   26.3222 C.3         1 MOL       0.0687
     17 C31        17.5449  -16.5894   27.0164 C.ar        1 MOL      -0.0116
     18 C32        17.8702  -16.4623   28.3876 C.ar        1 MOL      -0.0467
     19 C33        18.6714  -17.4232   29.0337 C.ar        1 MOL      -0.0334
     20 C44        19.1872  -18.5192   28.3094 C.ar        1 MOL       0.0883
     21 C8         18.8748  -18.6530   26.9398 C.ar        1 MOL      -0.0334
     22 C9         18.0541  -17.7010   26.3074 C.ar        1 MOL      -0.0467
     23 C40        19.9495  -19.3973   28.8986 C.1         1 MOL       0.0934
     24 N63        20.6235  -20.1698   29.4171 N.1         1 MOL      -0.3338
     25 C45        18.8834  -14.7160   22.6978 C.3         1 MOL       0.1430
     26 C12        19.0581  -13.8058   23.9649 C.3         1 MOL       0.0742
     27 C46        18.4320  -14.2566   25.2040 C.2         1 MOL       0.1821
     28 O22        18.9593  -13.9410   26.2667 O.2         1 MOL      -0.3967
     29 N14        17.3254  -14.9875   25.1904 N.am        1 MOL      -0.2739
     30 N15        19.4976  -13.3281   20.6852 N.am        1 MOL      -0.2500
     31 C16        18.3567  -12.4302   20.6573 C.3         1 MOL       0.1338
     32 C17        17.1024  -13.0039   20.1676 C.2         1 MOL       0.2037
     33 O18        17.0795  -14.1587   19.7549 O.2         1 MOL      -0.3944
     34 C34        18.8388  -11.2715   19.7421 C.3         1 MOL      -0.0104
     35 C1         19.7779  -11.9627   18.7508 C.3         1 MOL      -0.0281
     36 C2         20.4213  -13.0541   19.6138 C.3         1 MOL       0.0369
     37 N19        16.0222  -12.2292   20.1253 N.am        1 MOL      -0.2737
     38 C20        14.7250  -12.5681   19.6205 C.3         1 MOL       0.0645
     39 C21        13.6930  -12.2060   20.6230 C.ar        1 MOL      -0.0210
     40 C26        12.8390  -11.0957   20.4338 C.ar        1 MOL      -0.0584
     41 C25        11.8993  -10.7352   21.4166 C.ar        1 MOL      -0.0633
     42 C24        11.7603  -11.4868   22.6096 C.ar        1 MOL       0.0188
     43 C27        10.8340  -11.1242   23.5962 C.cat       1 MOL       0.2318
     44 N29        10.5261   -9.9048   23.8307 N.pl3       1 MOL      -0.2729
     45 N28        10.2475  -11.9944   24.3179 N.pl3       1 MOL      -0.2729
     46 C23        12.6035  -12.6153   22.7755 C.ar        1 MOL      -0.0633
     47 C22        13.5633  -12.9612   21.8079 C.ar        1 MOL      -0.0584
     48 H1         11.0515  -17.1427   20.6940 H           1 MOL       0.0578
     49 H2         12.1605  -16.3847   21.8559 H           1 MOL       0.0578
     50 H3         11.7808  -18.1322   21.9791 H           1 MOL       0.0578
     51 H4         16.3256  -18.3191   23.4340 H           1 MOL       0.0610
     52 H5         17.3749  -16.7588   19.6610 H           1 MOL       0.0614
     53 H6         14.0285  -18.4053   22.7621 H           1 MOL       0.0542
     54 H7         19.7194  -16.2650   23.8024 H           1 MOL       0.1706
     55 H8         16.3590  -14.7972   27.0013 H           1 MOL       0.0704
     56 H9         15.7931  -16.0972   25.9645 H           1 MOL       0.0704
     57 H10        17.5246  -15.6672   28.9304 H           1 MOL       0.0584
     58 H11        18.8755  -17.3104   30.0326 H           1 MOL       0.0701
     59 H12        19.2344  -19.4419   26.3924 H           1 MOL       0.0701
     60 H13        17.8388  -17.8178   25.3175 H           1 MOL       0.0584
     61 H14        17.8415  -14.6452   22.3636 H           1 MOL       0.0779
     62 H15        18.6521  -12.8152   23.7540 H           1 MOL       0.0547
     63 H16        20.1329  -13.6814   24.1503 H           1 MOL       0.0547
     64 H17        16.9266  -15.1725   24.3253 H           1 MOL       0.1881
     65 H18        18.1771  -12.0102   21.6519 H           1 MOL       0.0802
     66 H19        19.3986  -10.5329   20.3251 H           1 MOL       0.0313
     67 H20        18.0313  -10.7495   19.2229 H           1 MOL       0.0313
     68 H21        20.5186  -11.2783   18.3320 H           1 MOL       0.0287
     69 H22        19.1977  -12.4072   17.9370 H           1 MOL       0.0287
     70 H23        20.6008  -13.9485   19.0128 H           1 MOL       0.0524
     71 H24        21.3755  -12.6979   20.0145 H           1 MOL       0.0524
     72 H25        16.1330  -11.3124   20.4305 H           1 MOL       0.1878
     73 H26        14.6310  -13.6280   19.3702 H           1 MOL       0.0683
     74 H27        14.5790  -12.0085   18.6928 H           1 MOL       0.0683
     75 H28        12.9016  -10.5313   19.5827 H           1 MOL       0.0557
     76 H29        11.2980   -9.9251   21.2392 H           1 MOL       0.0599
     77 H30         9.9053   -9.7000   24.5033 H           1 MOL       0.3180
     78 H31        10.9271   -9.2100   23.3488 H           1 MOL       0.3180
     79 H32        10.4088  -12.9066   24.1904 H           1 MOL       0.3180
     80 H33         9.6308  -11.7318   24.9700 H           1 MOL       0.3180
     81 H34        12.5457  -13.1889   23.6200 H           1 MOL       0.0599
     82 H35        14.1694  -13.7695   21.9734 H           1 MOL       0.0557
@<TRIPOS>BOND
     1     1     3   1
     2     1     7   2
     3     1     8   2
     4    14     1  am
     5    12     2   1
     6     3     9  ar
     7     3    10  ar
     8     5     4   1
     9     6     5   1
    10    11     6  ar
    11    12     6  ar
    12     9    11  ar
    13    10    12  ar
    14    13    15   2
    15    25    13   1
    16    13    30  am
    17    25    14   1
    18    16    17   1
    19    29    16   1
    20    17    18  ar
    21    17    22  ar
    22    18    19  ar
    23    19    20  ar
    24    21    20  ar
    25    20    23   1
    26    22    21  ar
    27    23    24   3
    28    26    25   1
    29    27    26   1
    30    27    28   2
    31    27    29  am
    32    30    31   1
    33    30    36   1
    34    31    32   1
    35    31    34   1
    36    32    33   2
    37    32    37  am
    38    34    35   1
    39    35    36   1
    40    37    38   1
    41    38    39   1
    42    39    40  ar
    43    39    47  ar
    44    40    41  ar
    45    41    42  ar
    46    42    43   1
    47    42    46  ar
    48    43    44  ar
    49    43    45  ar
    50    46    47  ar
    51     4    48   1
    52     4    49   1
    53     4    50   1
    54     9    51   1
    55    10    52   1
    56    11    53   1
    57    14    54   1
    58    16    55   1
    59    16    56   1
    60    18    57   1
    61    19    58   1
    62    21    59   1
    63    22    60   1
    64    25    61   1
    65    26    62   1
    66    26    63   1
    67    29    64   1
    68    31    65   1
    69    34    66   1
    70    34    67   1
    71    35    68   1
    72    35    69   1
    73    36    70   1
    74    36    71   1
    75    37    72   1
    76    38    73   1
    77    38    74   1
    78    40    75   1
    79    41    76   1
    80    44    77   1
    81    44    78   1
    82    45    79   1
    83    45    80   1
    84    46    81   1
    85    47    82   1
@<TRIPOS>SUBSTRUCTURE
     1  MOL      2

