@<TRIPOS>MOLECULE
3utu_ligand_024
    82    85
SMALL
GAST_HUCK
****
This file was generated by PARSER (from files_GN.cpp)

@<TRIPOS>ATOM
      1 S8         20.5966  -15.4904   24.9827 S.o2        1 MOL       0.0657
      2 CL         21.5065  -19.7684   28.1612 Cl          1 MOL      -0.0788
      3 C35        20.1497  -16.4824   26.3380 C.ar        1 MOL       0.0977
      4 C10        19.2863  -18.1791   30.8905 C.3         1 MOL       0.0596
      5 O9         19.0668  -18.8435   29.6321 O.3         1 MOL      -0.3203
      6 C5         19.4287  -18.0818   28.5533 C.ar        1 MOL       0.1052
      7 O1         21.8166  -14.5701   25.4291 O.2         1 MOL      -0.1516
      8 O10        21.1738  -16.3573   23.7776 O.2         1 MOL      -0.1516
      9 C7         19.0243  -16.1477   27.1182 C.ar        1 MOL      -0.0438
     10 C3         20.9251  -17.6088   26.6814 C.ar        1 MOL      -0.0300
     11 C6         18.6566  -16.9530   28.2095 C.ar        1 MOL      -0.0306
     12 C4         20.5622  -18.4160   27.7769 C.ar        1 MOL       0.0696
     13 C13        18.1586  -13.5138   22.7344 C.2         1 MOL       0.2048
     14 N11        19.3819  -14.4484   24.4578 N.am        1 MOL      -0.2244
     15 O14        17.2508  -12.8136   23.1734 O.2         1 MOL      -0.3945
     16 C15        16.1822  -18.6156   25.7578 C.3         1 MOL       0.0687
     17 C31        15.1747  -19.2523   24.8608 C.ar        1 MOL      -0.0116
     18 C32        15.5460  -19.7815   23.6034 C.ar        1 MOL      -0.0467
     19 C33        14.5886  -20.3710   22.7585 C.ar        1 MOL      -0.0334
     20 C44        13.2358  -20.4434   23.1580 C.ar        1 MOL       0.0883
     21 C8         12.8590  -19.9293   24.4170 C.ar        1 MOL      -0.0334
     22 C9         13.8176  -19.3299   25.2541 C.ar        1 MOL      -0.0467
     23 C40        12.3470  -20.9854   22.3777 C.1         1 MOL       0.0934
     24 N63        11.5569  -21.4600   21.6874 N.1         1 MOL      -0.3338
     25 C45        18.3989  -14.7618   23.4669 C.3         1 MOL       0.1430
     26 C12        17.0884  -15.3431   24.1052 C.3         1 MOL       0.0742
     27 C46        17.1318  -16.7482   24.4610 C.2         1 MOL       0.1821
     28 O22        17.7891  -17.4943   23.7417 O.2         1 MOL      -0.3967
     29 N14        16.3699  -17.2331   25.4415 N.am        1 MOL      -0.2739
     30 N15        18.8679  -13.0734   21.6754 N.am        1 MOL      -0.2500
     31 C16        18.5334  -11.8645   20.9611 C.3         1 MOL       0.1338
     32 C17        17.2784  -12.0215   20.2324 C.2         1 MOL       0.2037
     33 O18        17.1354  -12.9966   19.5027 O.2         1 MOL      -0.3944
     34 C34        19.7417  -11.5780   20.0389 C.3         1 MOL      -0.0104
     35 C1         20.4437  -12.9316   19.8859 C.3         1 MOL      -0.0281
     36 C2         20.0374  -13.7179   21.1442 C.3         1 MOL       0.0369
     37 N19        16.3080  -11.1316   20.4061 N.am        1 MOL      -0.2737
     38 C20        14.9942  -11.1643   19.8436 C.3         1 MOL       0.0645
     39 C21        13.9657  -11.1103   20.9160 C.ar        1 MOL      -0.0210
     40 C26        12.8749  -12.0062   20.9371 C.ar        1 MOL      -0.0584
     41 C25        11.8996  -11.9309   21.9483 C.ar        1 MOL      -0.0633
     42 C24        11.9662  -10.9495   22.9717 C.ar        1 MOL       0.0188
     43 C27        10.9744  -10.8580   23.9620 C.cat       1 MOL       0.2318
     44 N29        10.4975   -9.7351   24.3535 N.pl3       1 MOL      -0.2729
     45 N28        10.4684  -11.8858   24.5288 N.pl3       1 MOL      -0.2729
     46 C23        13.0676  -10.0570   22.9401 C.ar        1 MOL      -0.0633
     47 C22        14.0459  -10.1316   21.9308 C.ar        1 MOL      -0.0584
     48 H1         19.0846  -18.8992   31.6839 H           1 MOL       0.0578
     49 H2         18.6011  -17.3347   31.0035 H           1 MOL       0.0578
     50 H3         20.3181  -17.8286   31.0019 H           1 MOL       0.0578
     51 H4         18.4713  -15.3155   26.9015 H           1 MOL       0.0610
     52 H5         21.7597  -17.8461   26.1410 H           1 MOL       0.0614
     53 H6         17.8315  -16.7051   28.7615 H           1 MOL       0.0542
     54 H7         19.2848  -13.6071   24.9390 H           1 MOL       0.1706
     55 H8         17.1475  -19.1310   25.7166 H           1 MOL       0.0704
     56 H9         15.8278  -18.6812   26.7910 H           1 MOL       0.0704
     57 H10        16.5192  -19.7324   23.2905 H           1 MOL       0.0584
     58 H11        14.8887  -20.7383   21.8520 H           1 MOL       0.0701
     59 H12        11.8861  -19.9795   24.7332 H           1 MOL       0.0701
     60 H13        13.5226  -18.9574   26.1611 H           1 MOL       0.0584
     61 H14        18.7943  -15.5201   22.7915 H           1 MOL       0.0779
     62 H15        16.2599  -15.2425   23.3937 H           1 MOL       0.0547
     63 H16        16.8258  -14.7380   24.9785 H           1 MOL       0.0547
     64 H17        15.8679  -16.5897   25.9714 H           1 MOL       0.1881
     65 H18        18.4629  -11.0346   21.6761 H           1 MOL       0.0802
     66 H19        20.4235  -10.8697   20.5209 H           1 MOL       0.0313
     67 H20        19.4529  -11.1716   19.0662 H           1 MOL       0.0313
     68 H21        21.5274  -12.8172   19.8114 H           1 MOL       0.0287
     69 H22        20.0752  -13.4384   18.9903 H           1 MOL       0.0287
     70 H23        19.8317  -14.7533   20.8577 H           1 MOL       0.0524
     71 H24        20.8414  -13.6907   21.8873 H           1 MOL       0.0524
     72 H25        16.5137  -10.3684   20.9735 H           1 MOL       0.1878
     73 H26        14.8467  -12.0396   19.2046 H           1 MOL       0.0683
     74 H27        14.8798  -10.2845   19.2106 H           1 MOL       0.0683
     75 H28        12.7750  -12.7170   20.2080 H           1 MOL       0.0557
     76 H29        11.1214  -12.5948   21.9092 H           1 MOL       0.0599
     77 H30         9.8261   -9.7130   25.0039 H           1 MOL       0.3180
     78 H31        10.7982   -8.9332   23.9831 H           1 MOL       0.3180
     79 H32        10.7528  -12.7487   24.3106 H           1 MOL       0.3180
     80 H33         9.8003  -11.7779   25.1734 H           1 MOL       0.3180
     81 H34        13.1839   -9.3417   23.6636 H           1 MOL       0.0599
     82 H35        14.8222   -9.4652   21.9450 H           1 MOL       0.0557
@<TRIPOS>BOND
     1     1     3   1
     2     1     7   2
     3     1     8   2
     4    14     1  am
     5    12     2   1
     6     3     9  ar
     7     3    10  ar
     8     5     4   1
     9     6     5   1
    10    11     6  ar
    11    12     6  ar
    12     9    11  ar
    13    10    12  ar
    14    13    15   2
    15    25    13   1
    16    13    30  am
    17    25    14   1
    18    16    17   1
    19    29    16   1
    20    17    18  ar
    21    17    22  ar
    22    18    19  ar
    23    19    20  ar
    24    21    20  ar
    25    20    23   1
    26    22    21  ar
    27    23    24   3
    28    26    25   1
    29    27    26   1
    30    27    28   2
    31    27    29  am
    32    30    31   1
    33    30    36   1
    34    31    32   1
    35    31    34   1
    36    32    33   2
    37    32    37  am
    38    34    35   1
    39    35    36   1
    40    37    38   1
    41    38    39   1
    42    39    40  ar
    43    39    47  ar
    44    40    41  ar
    45    41    42  ar
    46    42    43   1
    47    42    46  ar
    48    43    44  ar
    49    43    45  ar
    50    46    47  ar
    51     4    48   1
    52     4    49   1
    53     4    50   1
    54     9    51   1
    55    10    52   1
    56    11    53   1
    57    14    54   1
    58    16    55   1
    59    16    56   1
    60    18    57   1
    61    19    58   1
    62    21    59   1
    63    22    60   1
    64    25    61   1
    65    26    62   1
    66    26    63   1
    67    29    64   1
    68    31    65   1
    69    34    66   1
    70    34    67   1
    71    35    68   1
    72    35    69   1
    73    36    70   1
    74    36    71   1
    75    37    72   1
    76    38    73   1
    77    38    74   1
    78    40    75   1
    79    41    76   1
    80    44    77   1
    81    44    78   1
    82    45    79   1
    83    45    80   1
    84    46    81   1
    85    47    82   1
@<TRIPOS>SUBSTRUCTURE
     1  MOL      2

