@<TRIPOS>MOLECULE
3utu_ligand_002
    82    85
SMALL
GAST_HUCK
****
This file was generated by PARSER (from files_GN.cpp)

@<TRIPOS>ATOM
      1 S8         17.3788  -16.8003   23.2772 S.o2        1 MOL       0.0657
      2 CL         13.0668  -20.0564   22.8807 Cl          1 MOL      -0.0788
      3 C35        16.1532  -17.7929   24.0336 C.ar        1 MOL       0.0977
      4 C10        12.1543  -19.7431   26.3577 C.3         1 MOL       0.0596
      5 O9         13.3605  -20.3506   25.8659 O.3         1 MOL      -0.3203
      6 C5         14.2227  -19.4745   25.2609 C.ar        1 MOL       0.1052
      7 O1         18.7337  -17.0883   24.0611 O.2         1 MOL      -0.1516
      8 O10        17.5824  -17.2393   21.7648 O.2         1 MOL      -0.1516
      9 C7         16.1633  -17.9951   25.4310 C.ar        1 MOL      -0.0438
     10 C3         15.1636  -18.4327   23.2575 C.ar        1 MOL      -0.0300
     11 C6         15.2115  -18.8373   26.0342 C.ar        1 MOL      -0.0306
     12 C4         14.2075  -19.2757   23.8602 C.ar        1 MOL       0.0696
     13 C13        18.9027  -14.1471   22.2188 C.2         1 MOL       0.2048
     14 N11        16.9718  -15.1607   23.3250 N.am        1 MOL      -0.2244
     15 O14        19.7705  -14.9914   22.4066 O.2         1 MOL      -0.3945
     16 C15        21.4063  -12.2387   26.3972 C.3         1 MOL       0.0687
     17 C31        22.4518  -13.2137   25.9758 C.ar        1 MOL      -0.0116
     18 C32        23.4500  -12.8726   25.0354 C.ar        1 MOL      -0.0467
     19 C33        24.4155  -13.8169   24.6304 C.ar        1 MOL      -0.0334
     20 C44        24.3930  -15.1264   25.1571 C.ar        1 MOL       0.0883
     21 C8         23.4006  -15.4774   26.0958 C.ar        1 MOL      -0.0334
     22 C9         22.4453  -14.5278   26.5037 C.ar        1 MOL      -0.0467
     23 C40        25.2786  -16.0028   24.7834 C.1         1 MOL       0.0934
     24 N63        26.0591  -16.7809   24.4544 N.1         1 MOL      -0.3338
     25 C45        17.8836  -14.0485   23.2847 C.3         1 MOL       0.1430
     26 C12        18.4615  -13.7883   24.7157 C.3         1 MOL       0.0742
     27 C46        19.5570  -12.8430   24.9001 C.2         1 MOL       0.1821
     28 O22        20.0332  -12.2388   23.9463 O.2         1 MOL      -0.3967
     29 N14        20.1017  -12.7490   26.1075 N.am        1 MOL      -0.2739
     30 N15        18.9974  -13.3598   21.1247 N.am        1 MOL      -0.2500
     31 C16        18.0673  -12.3177   20.7413 C.3         1 MOL       0.1338
     32 C17        16.7892  -12.8047   20.2212 C.2         1 MOL       0.2037
     33 O18        16.6001  -14.0055   20.0528 O.2         1 MOL      -0.3944
     34 C34        18.8427  -11.4729   19.6999 C.3         1 MOL      -0.0104
     35 C1         19.8215  -12.4636   19.0693 C.3         1 MOL      -0.0281
     36 C2         20.1139  -13.4421   20.2186 C.3         1 MOL       0.0369
     37 N19        15.8362  -11.9204   19.9566 N.am        1 MOL      -0.2737
     38 C20        14.5131  -12.1780   19.4772 C.3         1 MOL       0.0645
     39 C21        13.5439  -11.8668   20.5561 C.ar        1 MOL      -0.0210
     40 C26        12.7078  -10.7288   20.5009 C.ar        1 MOL      -0.0584
     41 C25        11.8189  -10.4397   21.5533 C.ar        1 MOL      -0.0633
     42 C24        11.7246  -11.2838   22.6910 C.ar        1 MOL       0.0188
     43 C27        10.8352  -11.0092   23.7395 C.cat       1 MOL       0.2318
     44 N29        10.3242  -11.9348   24.4498 N.pl3       1 MOL      -0.2729
     45 N28        10.4803   -9.8176   24.0465 N.pl3       1 MOL      -0.2729
     46 C23        12.5632  -12.4277   22.7292 C.ar        1 MOL      -0.0633
     47 C22        13.4619  -12.7087   21.6848 C.ar        1 MOL      -0.0584
     48 H1         11.5527  -20.5149   26.8361 H           1 MOL       0.0578
     49 H2         11.5663  -19.3120   25.5442 H           1 MOL       0.0578
     50 H3         12.3699  -18.9726   27.1011 H           1 MOL       0.0578
     51 H4         16.8763  -17.5517   26.0149 H           1 MOL       0.0610
     52 H5         15.1478  -18.3019   22.2428 H           1 MOL       0.0614
     53 H6         15.2484  -18.9958   27.0452 H           1 MOL       0.0542
     54 H7         16.0697  -14.9650   23.6223 H           1 MOL       0.1706
     55 H8         21.5396  -11.2577   25.9328 H           1 MOL       0.0704
     56 H9         21.4861  -12.0991   27.4782 H           1 MOL       0.0704
     57 H10        23.4767  -11.9337   24.6294 H           1 MOL       0.0584
     58 H11        25.1255  -13.5379   23.9471 H           1 MOL       0.0701
     59 H12        23.3619  -16.4207   26.4945 H           1 MOL       0.0701
     60 H13        21.7323  -14.8053   27.1826 H           1 MOL       0.0584
     61 H14        17.2379  -13.1969   23.0826 H           1 MOL       0.0779
     62 H15        18.8141  -14.7397   25.1189 H           1 MOL       0.0547
     63 H16        17.6359  -13.4596   25.3563 H           1 MOL       0.0547
     64 H17        19.6534  -13.2232   26.8281 H           1 MOL       0.1881
     65 H18        17.8722  -11.6592   21.5955 H           1 MOL       0.0802
     66 H19        19.4040  -10.6797   20.2048 H           1 MOL       0.0313
     67 H20        18.2032  -11.0133   18.9407 H           1 MOL       0.0313
     68 H21        20.7268  -11.9716   18.7054 H           1 MOL       0.0287
     69 H22        19.3352  -12.9840   18.2402 H           1 MOL       0.0287
     70 H23        20.2379  -14.4526   19.8199 H           1 MOL       0.0524
     71 H24        21.0330  -13.1478   20.7358 H           1 MOL       0.0524
     72 H25        16.0474  -10.9903   20.1345 H           1 MOL       0.1878
     73 H26        14.3681  -13.2118   19.1508 H           1 MOL       0.0683
     74 H27        14.3577  -11.5404   18.6031 H           1 MOL       0.0683
     75 H28        12.7463  -10.0979   19.6971 H           1 MOL       0.0557
     76 H29        11.2241   -9.6123   21.4686 H           1 MOL       0.0599
     77 H30         9.7229  -11.7265   25.1347 H           1 MOL       0.3180
     78 H31        10.5161  -12.8346   24.2760 H           1 MOL       0.3180
     79 H32        10.8175   -9.0823   23.5781 H           1 MOL       0.3180
     80 H33         9.8813   -9.6784   24.7521 H           1 MOL       0.3180
     81 H34        12.5453  -13.0641   23.5299 H           1 MOL       0.0599
     82 H35        14.0593  -13.5368   21.7578 H           1 MOL       0.0557
@<TRIPOS>BOND
     1     1     3   1
     2     1     7   2
     3     1     8   2
     4    14     1  am
     5    12     2   1
     6     3     9  ar
     7     3    10  ar
     8     5     4   1
     9     6     5   1
    10    11     6  ar
    11    12     6  ar
    12     9    11  ar
    13    10    12  ar
    14    13    15   2
    15    25    13   1
    16    13    30  am
    17    25    14   1
    18    16    17   1
    19    29    16   1
    20    17    18  ar
    21    17    22  ar
    22    18    19  ar
    23    19    20  ar
    24    21    20  ar
    25    20    23   1
    26    22    21  ar
    27    23    24   3
    28    26    25   1
    29    27    26   1
    30    27    28   2
    31    27    29  am
    32    30    31   1
    33    30    36   1
    34    31    32   1
    35    31    34   1
    36    32    33   2
    37    32    37  am
    38    34    35   1
    39    35    36   1
    40    37    38   1
    41    38    39   1
    42    39    40  ar
    43    39    47  ar
    44    40    41  ar
    45    41    42  ar
    46    42    43   1
    47    42    46  ar
    48    43    44  ar
    49    43    45  ar
    50    46    47  ar
    51     4    48   1
    52     4    49   1
    53     4    50   1
    54     9    51   1
    55    10    52   1
    56    11    53   1
    57    14    54   1
    58    16    55   1
    59    16    56   1
    60    18    57   1
    61    19    58   1
    62    21    59   1
    63    22    60   1
    64    25    61   1
    65    26    62   1
    66    26    63   1
    67    29    64   1
    68    31    65   1
    69    34    66   1
    70    34    67   1
    71    35    68   1
    72    35    69   1
    73    36    70   1
    74    36    71   1
    75    37    72   1
    76    38    73   1
    77    38    74   1
    78    40    75   1
    79    41    76   1
    80    44    77   1
    81    44    78   1
    82    45    79   1
    83    45    80   1
    84    46    81   1
    85    47    82   1
@<TRIPOS>SUBSTRUCTURE
     1  MOL      2

