@<TRIPOS>MOLECULE
3utu_ligand_068
    82    85
SMALL
GAST_HUCK
****
This file was generated by PARSER (from files_GN.cpp)

@<TRIPOS>ATOM
      1 S8         17.6238  -16.9815   26.3406 S.o2        1 MOL       0.0657
      2 CL         15.0379  -20.8562   29.1433 Cl          1 MOL      -0.0788
      3 C35        16.3102  -18.1230   26.5086 C.ar        1 MOL       0.0977
      4 C10        11.7426  -20.1691   26.9187 C.3         1 MOL       0.0596
      5 O9         13.0473  -20.7793   26.9101 O.3         1 MOL      -0.3203
      6 C5         14.0937  -19.8984   26.7855 C.ar        1 MOL       0.1052
      7 O1         16.9872  -15.5440   26.5729 O.2         1 MOL      -0.1516
      8 O10        18.7262  -17.2211   27.4597 O.2         1 MOL      -0.1516
      9 C7         15.3008  -18.1859   25.5246 C.ar        1 MOL      -0.0438
     10 C3         16.2098  -18.9745   27.6338 C.ar        1 MOL      -0.0300
     11 C6         14.2172  -19.0673   25.6517 C.ar        1 MOL      -0.0306
     12 C4         15.1124  -19.8553   27.7718 C.ar        1 MOL       0.0696
     13 C13        18.6140  -15.0932   23.2562 C.2         1 MOL       0.2048
     14 N11        18.3546  -17.0176   24.8160 N.am        1 MOL      -0.2244
     15 O14        19.2751  -14.0817   23.0392 O.2         1 MOL      -0.3945
     16 C15        20.2090  -18.7759   20.7832 C.3         1 MOL       0.0687
     17 C31        21.4936  -19.2255   20.1786 C.ar        1 MOL      -0.0116
     18 C32        22.5940  -18.3415   20.0829 C.ar        1 MOL      -0.0467
     19 C33        23.7951  -18.7373   19.4722 C.ar        1 MOL      -0.0334
     20 C44        23.9218  -20.0355   18.9326 C.ar        1 MOL       0.0883
     21 C8         22.8311  -20.9281   19.0214 C.ar        1 MOL      -0.0334
     22 C9         21.6297  -20.5237   19.6326 C.ar        1 MOL      -0.0467
     23 C40        25.0278  -20.4010   18.3575 C.1         1 MOL       0.0934
     24 N63        26.0126  -20.7124   17.8538 N.1         1 MOL      -0.3338
     25 C45        19.1944  -15.9719   24.2964 C.3         1 MOL       0.1430
     26 C12        20.5718  -16.5925   23.8559 C.3         1 MOL       0.0742
     27 C46        20.6642  -17.0420   22.4699 C.2         1 MOL       0.1821
     28 O22        21.0643  -16.2450   21.6319 O.2         1 MOL      -0.3967
     29 N14        20.3480  -18.2925   22.1231 N.am        1 MOL      -0.2739
     30 N15        17.6081  -15.3656   22.3934 N.am        1 MOL      -0.2500
     31 C16        17.3003  -14.5740   21.2158 C.3         1 MOL       0.1338
     32 C17        16.6738  -13.2813   21.5104 C.2         1 MOL       0.2037
     33 O18        16.4393  -12.9633   22.6727 O.2         1 MOL      -0.3944
     34 C34        16.4135  -15.5252   20.3665 C.3         1 MOL      -0.0104
     35 C1         15.6590  -16.3471   21.4090 C.3         1 MOL      -0.0281
     36 C2         16.6751  -16.4387   22.5524 C.3         1 MOL       0.0369
     37 N19        16.3114  -12.4805   20.5140 N.am        1 MOL      -0.2737
     38 C20        15.6690  -11.2072   20.6511 C.3         1 MOL       0.0645
     39 C21        14.4639  -11.1513   21.5249 C.ar        1 MOL      -0.0210
     40 C26        13.7471  -12.2997   21.9343 C.ar        1 MOL      -0.0584
     41 C25        12.6705  -12.2025   22.8289 C.ar        1 MOL      -0.0633
     42 C24        12.2467  -10.9488   23.3450 C.ar        1 MOL       0.0188
     43 C27        11.1882  -10.8470   24.2679 C.cat       1 MOL       0.2318
     44 N29        10.6056  -11.8629   24.7824 N.pl3       1 MOL      -0.2729
     45 N28        10.7269   -9.7234   24.6662 N.pl3       1 MOL      -0.2729
     46 C23        12.9441   -9.7979   22.8843 C.ar        1 MOL      -0.0633
     47 C22        14.0207   -9.8946   21.9885 C.ar        1 MOL      -0.0584
     48 H1         11.0104  -20.9361   27.1649 H           1 MOL       0.0578
     49 H2         11.4963  -19.7700   25.9332 H           1 MOL       0.0578
     50 H3         11.6698  -19.3736   27.6631 H           1 MOL       0.0578
     51 H4         15.3138  -17.5802   24.7155 H           1 MOL       0.0610
     52 H5         16.9250  -18.9454   28.3676 H           1 MOL       0.0614
     53 H6         13.5101  -19.0831   24.9139 H           1 MOL       0.0542
     54 H7         18.2047  -17.8000   24.2584 H           1 MOL       0.1706
     55 H8         19.4844  -19.5981   20.8222 H           1 MOL       0.0704
     56 H9         19.7658  -18.0128   20.1312 H           1 MOL       0.0704
     57 H10        22.5339  -17.3924   20.4383 H           1 MOL       0.0584
     58 H11        24.5547  -18.0607   19.4146 H           1 MOL       0.0701
     59 H12        22.9041  -21.8774   18.6392 H           1 MOL       0.0701
     60 H13        20.8546  -21.1912   19.6716 H           1 MOL       0.0584
     61 H14        19.4258  -15.3237   25.1511 H           1 MOL       0.0779
     62 H15        20.8249  -17.4187   24.5310 H           1 MOL       0.0547
     63 H16        21.3580  -15.8423   23.9970 H           1 MOL       0.0547
     64 H17        20.0775  -18.9014   22.8351 H           1 MOL       0.1881
     65 H18        18.2087  -14.3805   20.6369 H           1 MOL       0.0802
     66 H19        17.0456  -16.2003   19.7771 H           1 MOL       0.0313
     67 H20        15.7226  -15.0147   19.6847 H           1 MOL       0.0313
     68 H21        15.3797  -17.3339   21.0263 H           1 MOL       0.0287
     69 H22        14.7591  -15.8075   21.7304 H           1 MOL       0.0287
     70 H23        16.1525  -16.3027   23.4910 H           1 MOL       0.0524
     71 H24        17.1801  -17.4089   22.5140 H           1 MOL       0.0524
     72 H25        16.4950  -12.7801   19.6062 H           1 MOL       0.1878
     73 H26        15.3788  -10.8708   19.6540 H           1 MOL       0.0683
     74 H27        16.4258  -10.5156   21.0263 H           1 MOL       0.0683
     75 H28        14.0126  -13.2270   21.5986 H           1 MOL       0.0557
     76 H29        12.2043  -13.0730   23.0966 H           1 MOL       0.0599
     77 H30         9.9000  -11.7350   25.3838 H           1 MOL       0.3180
     78 H31        10.8604  -12.7367   24.5637 H           1 MOL       0.3180
     79 H32        11.0774   -8.9184   24.3461 H           1 MOL       0.3180
     80 H33        10.0201   -9.6964   25.2779 H           1 MOL       0.3180
     81 H34        12.6949   -8.8639   23.2119 H           1 MOL       0.0599
     82 H35        14.5021   -9.0365   21.7017 H           1 MOL       0.0557
@<TRIPOS>BOND
     1     1     3   1
     2     1     7   2
     3     1     8   2
     4    14     1  am
     5    12     2   1
     6     3     9  ar
     7     3    10  ar
     8     5     4   1
     9     6     5   1
    10    11     6  ar
    11    12     6  ar
    12     9    11  ar
    13    10    12  ar
    14    13    15   2
    15    25    13   1
    16    13    30  am
    17    25    14   1
    18    16    17   1
    19    29    16   1
    20    17    18  ar
    21    17    22  ar
    22    18    19  ar
    23    19    20  ar
    24    21    20  ar
    25    20    23   1
    26    22    21  ar
    27    23    24   3
    28    26    25   1
    29    27    26   1
    30    27    28   2
    31    27    29  am
    32    30    31   1
    33    30    36   1
    34    31    32   1
    35    31    34   1
    36    32    33   2
    37    32    37  am
    38    34    35   1
    39    35    36   1
    40    37    38   1
    41    38    39   1
    42    39    40  ar
    43    39    47  ar
    44    40    41  ar
    45    41    42  ar
    46    42    43   1
    47    42    46  ar
    48    43    44  ar
    49    43    45  ar
    50    46    47  ar
    51     4    48   1
    52     4    49   1
    53     4    50   1
    54     9    51   1
    55    10    52   1
    56    11    53   1
    57    14    54   1
    58    16    55   1
    59    16    56   1
    60    18    57   1
    61    19    58   1
    62    21    59   1
    63    22    60   1
    64    25    61   1
    65    26    62   1
    66    26    63   1
    67    29    64   1
    68    31    65   1
    69    34    66   1
    70    34    67   1
    71    35    68   1
    72    35    69   1
    73    36    70   1
    74    36    71   1
    75    37    72   1
    76    38    73   1
    77    38    74   1
    78    40    75   1
    79    41    76   1
    80    44    77   1
    81    44    78   1
    82    45    79   1
    83    45    80   1
    84    46    81   1
    85    47    82   1
@<TRIPOS>SUBSTRUCTURE
     1  MOL      2

