@<TRIPOS>MOLECULE
3utu_ligand_022
    82    85
SMALL
GAST_HUCK
****
This file was generated by PARSER (from files_GN.cpp)

@<TRIPOS>ATOM
      1 S8         20.2291  -13.5982   25.9799 S.o2        1 MOL       0.0657
      2 CL         24.5152  -16.8258   25.6533 Cl          1 MOL      -0.0788
      3 C35        21.9147  -13.7959   25.5724 C.ar        1 MOL       0.0977
      4 C10        26.0077  -15.1755   23.0996 C.3         1 MOL       0.0596
      5 O9         25.8761  -14.4704   24.3467 O.3         1 MOL      -0.3203
      6 C5         24.5808  -14.2722   24.7354 C.ar        1 MOL       0.1052
      7 O1         20.0918  -13.5054   27.5611 O.2         1 MOL      -0.1516
      8 O10        19.6247  -12.2687   25.3457 O.2         1 MOL      -0.1516
      9 C7         22.6748  -12.7576   24.9932 C.ar        1 MOL      -0.0438
     10 C3         22.5225  -15.0541   25.7811 C.ar        1 MOL      -0.0300
     11 C6         23.9995  -12.9923   24.5803 C.ar        1 MOL      -0.0306
     12 C4         23.8434  -15.2960   25.3714 C.ar        1 MOL       0.0696
     13 C13        17.8314  -14.0833   23.8685 C.2         1 MOL       0.2048
     14 N11        19.4367  -14.9890   25.4382 N.am        1 MOL      -0.2244
     15 O14        16.9220  -13.3068   24.1298 O.2         1 MOL      -0.3945
     16 C15        17.8798  -18.0866   28.5143 C.3         1 MOL       0.0687
     17 C31        18.7865  -19.2214   28.2088 C.ar        1 MOL      -0.0116
     18 C32        20.1721  -19.1358   28.4649 C.ar        1 MOL      -0.0467
     19 C33        21.0212  -20.2327   28.2184 C.ar        1 MOL      -0.0334
     20 C44        20.4888  -21.4409   27.7151 C.ar        1 MOL       0.0883
     21 C8         19.1067  -21.5333   27.4553 C.ar        1 MOL      -0.0334
     22 C9         18.2643  -20.4322   27.6975 C.ar        1 MOL      -0.0467
     23 C40        21.2664  -22.4674   27.5002 C.1         1 MOL       0.0934
     24 N63        21.9441  -23.3735   27.3093 N.1         1 MOL      -0.3338
     25 C45        18.1321  -15.1280   24.8634 C.3         1 MOL       0.1430
     26 C12        17.0363  -15.4086   25.9559 C.3         1 MOL       0.0742
     27 C46        17.5093  -16.0464   27.1817 C.2         1 MOL       0.1821
     28 O22        17.8753  -15.3153   28.0882 O.2         1 MOL      -0.3967
     29 N14        17.5151  -17.3738   27.3230 N.am        1 MOL      -0.2739
     30 N15        18.5486  -13.8644   22.7496 N.am        1 MOL      -0.2500
     31 C16        18.4584  -12.6495   21.9683 C.3         1 MOL       0.1338
     32 C17        17.2197  -12.5109   21.2100 C.2         1 MOL       0.2037
     33 O18        16.7646  -13.4854   20.6176 O.2         1 MOL      -0.3944
     34 C34        19.7032  -12.6740   21.0509 C.3         1 MOL      -0.0104
     35 C1         20.0057  -14.1659   20.8980 C.3         1 MOL      -0.0281
     36 C2         19.5547  -14.7555   22.2439 C.3         1 MOL       0.0369
     37 N19        16.6250  -11.3273   21.1417 N.am        1 MOL      -0.2737
     38 C20        15.4198  -10.9935   20.4591 C.3         1 MOL       0.0645
     39 C21        14.3296  -10.9426   21.4596 C.ar        1 MOL      -0.0210
     40 C26        13.9081   -9.7161   22.0158 C.ar        1 MOL      -0.0584
     41 C25        12.8984   -9.6852   22.9936 C.ar        1 MOL      -0.0633
     42 C24        12.2640  -10.8733   23.4479 C.ar        1 MOL       0.0188
     43 C27        11.2138  -10.8379   24.3908 C.cat       1 MOL       0.2318
     44 N29        10.7366   -9.7484   24.8532 N.pl3       1 MOL      -0.2729
     45 N28        10.6423  -11.8888   24.8363 N.pl3       1 MOL      -0.2729
     46 C23        12.7240  -12.0985   22.8986 C.ar        1 MOL      -0.0633
     47 C22        13.7412  -12.1353   21.9284 C.ar        1 MOL      -0.0584
     48 H1         27.0658  -15.2039   22.8443 H           1 MOL       0.0578
     49 H2         25.4804  -14.6673   22.2889 H           1 MOL       0.0578
     50 H3         25.6481  -16.2036   23.1775 H           1 MOL       0.0578
     51 H4         22.2709  -11.8252   24.8669 H           1 MOL       0.0610
     52 H5         21.9927  -15.8068   26.2337 H           1 MOL       0.0614
     53 H6         24.5373  -12.2348   24.1534 H           1 MOL       0.0542
     54 H7         19.8511  -15.8201   25.7199 H           1 MOL       0.1706
     55 H8         18.3427  -17.4351   29.2615 H           1 MOL       0.0704
     56 H9         16.9656  -18.4687   28.9736 H           1 MOL       0.0704
     57 H10        20.5801  -18.2747   28.8429 H           1 MOL       0.0584
     58 H11        22.0233  -20.1428   28.4166 H           1 MOL       0.0701
     59 H12        18.6973  -22.4003   27.0965 H           1 MOL       0.0701
     60 H13        17.2645  -20.5273   27.5176 H           1 MOL       0.0584
     61 H14        18.1972  -16.0641   24.3041 H           1 MOL       0.0779
     62 H15        16.2557  -16.0288   25.5031 H           1 MOL       0.0547
     63 H16        16.5343  -14.4809   26.2467 H           1 MOL       0.0547
     64 H17        17.1811  -17.8939   26.5766 H           1 MOL       0.1881
     65 H18        18.5755  -11.7889   22.6383 H           1 MOL       0.0802
     66 H19        20.5470  -12.1887   21.5516 H           1 MOL       0.0313
     67 H20        19.5462  -12.1850   20.0818 H           1 MOL       0.0313
     68 H21        21.0648  -14.3382   20.6976 H           1 MOL       0.0287
     69 H22        19.4122  -14.5875   20.0814 H           1 MOL       0.0287
     70 H23        19.1630  -15.7643   22.0876 H           1 MOL       0.0524
     71 H24        20.4038  -14.7973   22.9274 H           1 MOL       0.0524
     72 H25        17.0408  -10.5944   21.6238 H           1 MOL       0.1878
     73 H26        15.1622  -11.6966   19.6612 H           1 MOL       0.0683
     74 H27        15.5631  -10.0188   19.9861 H           1 MOL       0.0683
     75 H28        14.3448   -8.8392   21.7219 H           1 MOL       0.0557
     76 H29        12.6373   -8.7696   23.3668 H           1 MOL       0.0599
     77 H30        10.0260   -9.7703   25.4625 H           1 MOL       0.3180
     78 H31        11.0677   -8.9180   24.5797 H           1 MOL       0.3180
     79 H32        10.9031  -12.7439   24.5591 H           1 MOL       0.3180
     80 H33         9.9300  -11.8095   25.4389 H           1 MOL       0.3180
     81 H34        12.3183  -12.9917   23.1837 H           1 MOL       0.0599
     82 H35        14.0420  -13.0400   21.5582 H           1 MOL       0.0557
@<TRIPOS>BOND
     1     1     3   1
     2     1     7   2
     3     1     8   2
     4    14     1  am
     5    12     2   1
     6     3     9  ar
     7     3    10  ar
     8     5     4   1
     9     6     5   1
    10    11     6  ar
    11    12     6  ar
    12     9    11  ar
    13    10    12  ar
    14    13    15   2
    15    25    13   1
    16    13    30  am
    17    25    14   1
    18    16    17   1
    19    29    16   1
    20    17    18  ar
    21    17    22  ar
    22    18    19  ar
    23    19    20  ar
    24    21    20  ar
    25    20    23   1
    26    22    21  ar
    27    23    24   3
    28    26    25   1
    29    27    26   1
    30    27    28   2
    31    27    29  am
    32    30    31   1
    33    30    36   1
    34    31    32   1
    35    31    34   1
    36    32    33   2
    37    32    37  am
    38    34    35   1
    39    35    36   1
    40    37    38   1
    41    38    39   1
    42    39    40  ar
    43    39    47  ar
    44    40    41  ar
    45    41    42  ar
    46    42    43   1
    47    42    46  ar
    48    43    44  ar
    49    43    45  ar
    50    46    47  ar
    51     4    48   1
    52     4    49   1
    53     4    50   1
    54     9    51   1
    55    10    52   1
    56    11    53   1
    57    14    54   1
    58    16    55   1
    59    16    56   1
    60    18    57   1
    61    19    58   1
    62    21    59   1
    63    22    60   1
    64    25    61   1
    65    26    62   1
    66    26    63   1
    67    29    64   1
    68    31    65   1
    69    34    66   1
    70    34    67   1
    71    35    68   1
    72    35    69   1
    73    36    70   1
    74    36    71   1
    75    37    72   1
    76    38    73   1
    77    38    74   1
    78    40    75   1
    79    41    76   1
    80    44    77   1
    81    44    78   1
    82    45    79   1
    83    45    80   1
    84    46    81   1
    85    47    82   1
@<TRIPOS>SUBSTRUCTURE
     1  MOL      2

