@<TRIPOS>MOLECULE
3utu_ligand_044
    82    85
SMALL
GAST_HUCK
****
This file was generated by PARSER (from files_GN.cpp)

@<TRIPOS>ATOM
      1 S8         16.6669  -16.4327   21.5472 S.o2        1 MOL       0.0657
      2 CL         18.7410  -20.2835   18.3951 Cl          1 MOL      -0.0788
      3 C35        16.8919  -17.1063   19.9554 C.ar        1 MOL       0.0977
      4 C10        18.5917  -18.4046   15.4684 C.3         1 MOL       0.0596
      5 O9         17.3778  -18.7921   16.1380 O.3         1 MOL      -0.3203
      6 C5         17.2505  -18.2525   17.3916 C.ar        1 MOL       0.1052
      7 O1         15.6563  -15.2034   21.5503 O.2         1 MOL      -0.1516
      8 O10        15.9729  -17.5187   22.4803 O.2         1 MOL      -0.1516
      9 C7         16.2981  -16.5128   18.8226 C.ar        1 MOL      -0.0438
     10 C3         17.6530  -18.2837   19.8000 C.ar        1 MOL      -0.0300
     11 C6         16.4726  -17.0879   17.5518 C.ar        1 MOL      -0.0306
     12 C4         17.8282  -18.8622   18.5282 C.ar        1 MOL       0.0696
     13 C13        19.6475  -14.3573   21.6615 C.2         1 MOL       0.2048
     14 N11        18.1204  -16.0435   22.3096 N.am        1 MOL      -0.2244
     15 O14        20.5578  -15.1738   21.5435 O.2         1 MOL      -0.3945
     16 C15        16.9417  -16.9126   26.1990 C.3         1 MOL       0.0687
     17 C31        17.5994  -17.6600   27.2991 C.ar        1 MOL      -0.0116
     18 C32        17.9055  -19.0340   27.1671 C.ar        1 MOL      -0.0467
     19 C33        18.5510  -19.7301   28.2054 C.ar        1 MOL      -0.0334
     20 C44        18.9015  -19.0603   29.3974 C.ar        1 MOL       0.0883
     21 C8         18.6012  -17.6887   29.5374 C.ar        1 MOL      -0.0334
     22 C9         17.9652  -16.9941   28.4918 C.ar        1 MOL      -0.0467
     23 C40        19.4996  -19.7035   30.3596 C.1         1 MOL       0.0934
     24 N63        20.0262  -20.2725   31.2070 N.1         1 MOL      -0.3338
     25 C45        18.5731  -14.7165   22.5980 C.3         1 MOL       0.1430
     26 C12        19.0411  -14.6141   24.0787 C.3         1 MOL       0.0742
     27 C46        18.0014  -15.0267   25.0120 C.2         1 MOL       0.1821
     28 O22        17.1213  -14.2256   25.3058 O.2         1 MOL      -0.3967
     29 N14        17.9450  -16.2976   25.3905 N.am        1 MOL      -0.2739
     30 N15        19.7371  -13.2019   20.9783 N.am        1 MOL      -0.2500
     31 C16        18.8227  -12.0905   21.0954 C.3         1 MOL       0.1338
     32 C17        17.5277  -12.2970   20.4463 C.2         1 MOL       0.2037
     33 O18        17.3529  -13.2738   19.7269 O.2         1 MOL      -0.3944
     34 C34        19.6090  -10.9027   20.4914 C.3         1 MOL      -0.0104
     35 C1         20.5232  -11.5548   19.4508 C.3         1 MOL      -0.0281
     36 C2         20.8237  -12.9232   20.0778 C.3         1 MOL       0.0369
     37 N19        16.5541  -11.4198   20.6658 N.am        1 MOL      -0.2737
     38 C20        15.2198  -11.4770   20.1473 C.3         1 MOL       0.0645
     39 C21        14.2343  -11.3643   21.2532 C.ar        1 MOL      -0.0210
     40 C26        14.0580  -10.1410   21.9373 C.ar        1 MOL      -0.0584
     41 C25        13.0780  -10.0098   22.9393 C.ar        1 MOL      -0.0633
     42 C24        12.2427  -11.0970   23.3094 C.ar        1 MOL       0.0188
     43 C27        11.2176  -10.9498   24.2636 C.cat       1 MOL       0.2318
     44 N29        10.7297   -9.8111   24.5788 N.pl3       1 MOL      -0.2729
     45 N28        10.6788  -11.9405   24.8652 N.pl3       1 MOL      -0.2729
     46 C23        12.4666  -12.3334   22.6470 C.ar        1 MOL      -0.0633
     47 C22        13.4343  -12.4624   21.6339 C.ar        1 MOL      -0.0584
     48 H1         18.5715  -18.8263   14.4637 H           1 MOL       0.0578
     49 H2         19.4700  -18.8005   15.9818 H           1 MOL       0.0578
     50 H3         18.6790  -17.3187   15.3816 H           1 MOL       0.0578
     51 H4         15.7312  -15.6662   18.9110 H           1 MOL       0.0610
     52 H5         18.0739  -18.7307   20.6190 H           1 MOL       0.0614
     53 H6         16.0363  -16.6503   16.7374 H           1 MOL       0.0542
     54 H7         18.7252  -16.7752   22.5076 H           1 MOL       0.1706
     55 H8         16.2294  -16.1941   26.6089 H           1 MOL       0.0704
     56 H9         16.3685  -17.5917   25.5582 H           1 MOL       0.0704
     57 H10        17.6715  -19.5358   26.3091 H           1 MOL       0.0584
     58 H11        18.7641  -20.7253   28.0803 H           1 MOL       0.0701
     59 H12        18.8384  -17.1836   30.3956 H           1 MOL       0.0701
     60 H13        17.7586  -15.9967   28.6117 H           1 MOL       0.0584
     61 H14        17.7326  -14.0305   22.5074 H           1 MOL       0.0779
     62 H15        19.3274  -13.5791   24.3006 H           1 MOL       0.0547
     63 H16        19.9327  -15.2287   24.2285 H           1 MOL       0.0547
     64 H17        18.6428  -16.8833   25.0538 H           1 MOL       0.1881
     65 H18        18.6515  -11.8694   22.1542 H           1 MOL       0.0802
     66 H19        20.2299  -10.4299   21.2582 H           1 MOL       0.0313
     67 H20        18.9647  -10.1354   20.0593 H           1 MOL       0.0313
     68 H21        21.4325  -10.9712   19.2817 H           1 MOL       0.0287
     69 H22        19.9861  -11.6721   18.5046 H           1 MOL       0.0287
     70 H23        20.9064  -13.6863   19.2959 H           1 MOL       0.0524
     71 H24        21.7605  -12.8786   20.6393 H           1 MOL       0.0524
     72 H25        16.7695  -10.6534   21.2264 H           1 MOL       0.1878
     73 H26        15.0471  -12.3843   19.5602 H           1 MOL       0.0683
     74 H27        15.0822  -10.6351   19.4636 H           1 MOL       0.0683
     75 H28        14.6347   -9.3299   21.6973 H           1 MOL       0.0557
     76 H29        12.9917   -9.1047   23.4085 H           1 MOL       0.0599
     77 H30        10.0321   -9.7568   25.1994 H           1 MOL       0.3180
     78 H31        11.0396   -9.0281   24.1735 H           1 MOL       0.3180
     79 H32        10.9578  -12.8180   24.7013 H           1 MOL       0.3180
     80 H33         9.9784  -11.7914   25.4670 H           1 MOL       0.3180
     81 H34        11.8954  -13.1535   22.8625 H           1 MOL       0.0599
     82 H35        13.5387  -13.3633   21.1655 H           1 MOL       0.0557
@<TRIPOS>BOND
     1     1     3   1
     2     1     7   2
     3     1     8   2
     4    14     1  am
     5    12     2   1
     6     3     9  ar
     7     3    10  ar
     8     5     4   1
     9     6     5   1
    10    11     6  ar
    11    12     6  ar
    12     9    11  ar
    13    10    12  ar
    14    13    15   2
    15    25    13   1
    16    13    30  am
    17    25    14   1
    18    16    17   1
    19    29    16   1
    20    17    18  ar
    21    17    22  ar
    22    18    19  ar
    23    19    20  ar
    24    21    20  ar
    25    20    23   1
    26    22    21  ar
    27    23    24   3
    28    26    25   1
    29    27    26   1
    30    27    28   2
    31    27    29  am
    32    30    31   1
    33    30    36   1
    34    31    32   1
    35    31    34   1
    36    32    33   2
    37    32    37  am
    38    34    35   1
    39    35    36   1
    40    37    38   1
    41    38    39   1
    42    39    40  ar
    43    39    47  ar
    44    40    41  ar
    45    41    42  ar
    46    42    43   1
    47    42    46  ar
    48    43    44  ar
    49    43    45  ar
    50    46    47  ar
    51     4    48   1
    52     4    49   1
    53     4    50   1
    54     9    51   1
    55    10    52   1
    56    11    53   1
    57    14    54   1
    58    16    55   1
    59    16    56   1
    60    18    57   1
    61    19    58   1
    62    21    59   1
    63    22    60   1
    64    25    61   1
    65    26    62   1
    66    26    63   1
    67    29    64   1
    68    31    65   1
    69    34    66   1
    70    34    67   1
    71    35    68   1
    72    35    69   1
    73    36    70   1
    74    36    71   1
    75    37    72   1
    76    38    73   1
    77    38    74   1
    78    40    75   1
    79    41    76   1
    80    44    77   1
    81    44    78   1
    82    45    79   1
    83    45    80   1
    84    46    81   1
    85    47    82   1
@<TRIPOS>SUBSTRUCTURE
     1  MOL      2

