@<TRIPOS>MOLECULE
3utu_ligand_020
    82    85
SMALL
GAST_HUCK
****
This file was generated by PARSER (from files_GN.cpp)

@<TRIPOS>ATOM
      1 S8         20.3434  -13.0401   26.0250 S.o2        1 MOL       0.0657
      2 CL         24.0670  -16.9372   25.6511 Cl          1 MOL      -0.0788
      3 C35        21.9512  -13.5513   25.5907 C.ar        1 MOL       0.0977
      4 C10        25.8745  -15.2462   23.0920 C.3         1 MOL       0.0596
      5 O9         25.8038  -14.7592   24.4411 O.3         1 MOL      -0.3203
      6 C5         24.5385  -14.3960   24.8120 C.ar        1 MOL       0.1052
      7 O1         20.3296  -12.9792   27.6145 O.2         1 MOL      -0.1516
      8 O10        19.9976  -11.5813   25.4917 O.2         1 MOL      -0.1516
      9 C7         22.8673  -12.6294   25.0460 C.ar        1 MOL      -0.0438
     10 C3         22.3485  -14.8926   25.7745 C.ar        1 MOL      -0.0300
     11 C6         24.1542  -13.0483   24.6628 C.ar        1 MOL      -0.0306
     12 C4         23.6350  -15.3191   25.3923 C.ar        1 MOL       0.0696
     13 C13        18.5043  -13.6611   23.3401 C.2         1 MOL       0.2048
     14 N11        19.1251  -14.1238   25.5864 N.am        1 MOL      -0.2244
     15 O14        17.4283  -13.1517   23.6400 O.2         1 MOL      -0.3945
     16 C15        19.3745  -18.9224   22.4171 C.3         1 MOL       0.0687
     17 C31        20.7953  -18.6879   22.0596 C.ar        1 MOL      -0.0116
     18 C32        21.8325  -19.0842   22.9367 C.ar        1 MOL      -0.0467
     19 C33        23.1818  -18.8796   22.5939 C.ar        1 MOL      -0.0334
     20 C44        23.5172  -18.2644   21.3681 C.ar        1 MOL       0.0883
     21 C8         22.4881  -17.8288   20.5069 C.ar        1 MOL      -0.0334
     22 C9         21.1403  -18.0462   20.8482 C.ar        1 MOL      -0.0467
     23 C40        24.7612  -18.1011   21.0304 C.1         1 MOL       0.0934
     24 N63        25.8619  -17.9628   20.7245 N.1         1 MOL      -0.3338
     25 C45        19.0032  -14.6811   24.2746 C.3         1 MOL       0.1430
     26 C12        18.0889  -15.9488   24.3450 C.3         1 MOL       0.0742
     27 C46        18.2951  -16.8623   23.2328 C.2         1 MOL       0.1821
     28 O22        17.8903  -16.5366   22.1241 O.2         1 MOL      -0.3967
     29 N14        18.9794  -17.9851   23.4191 N.am        1 MOL      -0.2739
     30 N15        19.1259  -13.2512   22.2176 N.am        1 MOL      -0.2500
     31 C16        18.7002  -12.1091   21.4361 C.3         1 MOL       0.1338
     32 C17        17.4181  -12.3025   20.7593 C.2         1 MOL       0.2037
     33 O18        17.2484  -13.3216   20.1008 O.2         1 MOL      -0.3944
     34 C34        19.8563  -11.8533   20.4347 C.3         1 MOL      -0.0104
     35 C1         20.5188  -13.2259   20.2904 C.3         1 MOL      -0.0281
     36 C2         20.3008  -13.8726   21.6672 C.3         1 MOL       0.0369
     37 N19        16.4926  -11.3526   20.8232 N.am        1 MOL      -0.2737
     38 C20        15.1995  -11.3635   20.2096 C.3         1 MOL       0.0645
     39 C21        14.1598  -11.2732   21.2628 C.ar        1 MOL      -0.0210
     40 C26        13.9812  -10.0719   21.9832 C.ar        1 MOL      -0.0584
     41 C25        12.9830   -9.9630   22.9663 C.ar        1 MOL      -0.0633
     42 C24        12.1273  -11.0530   23.2731 C.ar        1 MOL       0.0188
     43 C27        11.1020  -10.9320   24.2219 C.cat       1 MOL       0.2318
     44 N29        10.6014   -9.8017   24.5486 N.pl3       1 MOL      -0.2729
     45 N28        10.5844  -11.9443   24.8086 N.pl3       1 MOL      -0.2729
     46 C23        12.3348  -12.2629   22.5600 C.ar        1 MOL      -0.0633
     47 C22        13.3276  -12.3712   21.5689 C.ar        1 MOL      -0.0584
     48 H1         26.9147  -15.4702   22.8532 H           1 MOL       0.0578
     49 H2         25.5110  -14.5067   22.3719 H           1 MOL       0.0578
     50 H3         25.2968  -16.1661   22.9908 H           1 MOL       0.0578
     51 H4         22.6083  -11.6483   24.9224 H           1 MOL       0.0610
     52 H5         21.6952  -15.5656   26.1841 H           1 MOL       0.0614
     53 H6         24.8138  -12.3706   24.2748 H           1 MOL       0.0542
     54 H7         18.3820  -14.2400   26.1991 H           1 MOL       0.1706
     55 H8         19.2597  -19.9256   22.8305 H           1 MOL       0.0704
     56 H9         18.7352  -18.8726   21.5313 H           1 MOL       0.0704
     57 H10        21.6109  -19.5354   23.8283 H           1 MOL       0.0584
     58 H11        23.9131  -19.1912   23.2428 H           1 MOL       0.0701
     59 H12        22.7060  -17.3591   19.6212 H           1 MOL       0.0701
     60 H13        20.4120  -17.7270   20.2042 H           1 MOL       0.0584
     61 H14        19.9986  -15.0264   23.9853 H           1 MOL       0.0779
     62 H15        17.0352  -15.6595   24.3837 H           1 MOL       0.0547
     63 H16        18.2943  -16.4742   25.2824 H           1 MOL       0.0547
     64 H17        19.3048  -18.1636   24.3155 H           1 MOL       0.1881
     65 H18        18.6423  -11.2390   22.1002 H           1 MOL       0.0802
     66 H19        20.5752  -11.1506   20.8655 H           1 MOL       0.0313
     67 H20        19.5223  -11.4549   19.4718 H           1 MOL       0.0313
     68 H21        21.5775  -13.1405   20.0319 H           1 MOL       0.0287
     69 H22        20.0050  -13.8030   19.5158 H           1 MOL       0.0287
     70 H23        20.1640  -14.9508   21.5375 H           1 MOL       0.0524
     71 H24        21.1669  -13.6915   22.3113 H           1 MOL       0.0524
     72 H25        16.7112  -10.5584   21.3389 H           1 MOL       0.1878
     73 H26        15.0469  -12.2482   19.5842 H           1 MOL       0.0683
     74 H27        15.1296  -10.4953   19.5503 H           1 MOL       0.0683
     75 H28        14.5753   -9.2622   21.7925 H           1 MOL       0.0557
     76 H29        12.8983   -9.0733   23.4643 H           1 MOL       0.0599
     77 H30         9.9108   -9.7547   25.1756 H           1 MOL       0.3180
     78 H31        10.9023   -9.0134   24.1454 H           1 MOL       0.3180
     79 H32        10.8890  -12.8097   24.6261 H           1 MOL       0.3180
     80 H33         9.8843  -11.8265   25.4157 H           1 MOL       0.3180
     81 H34        11.7406  -13.0766   22.7274 H           1 MOL       0.0599
     82 H35        13.4320  -13.2550   21.0650 H           1 MOL       0.0557
@<TRIPOS>BOND
     1     1     3   1
     2     1     7   2
     3     1     8   2
     4    14     1  am
     5    12     2   1
     6     3     9  ar
     7     3    10  ar
     8     5     4   1
     9     6     5   1
    10    11     6  ar
    11    12     6  ar
    12     9    11  ar
    13    10    12  ar
    14    13    15   2
    15    25    13   1
    16    13    30  am
    17    25    14   1
    18    16    17   1
    19    29    16   1
    20    17    18  ar
    21    17    22  ar
    22    18    19  ar
    23    19    20  ar
    24    21    20  ar
    25    20    23   1
    26    22    21  ar
    27    23    24   3
    28    26    25   1
    29    27    26   1
    30    27    28   2
    31    27    29  am
    32    30    31   1
    33    30    36   1
    34    31    32   1
    35    31    34   1
    36    32    33   2
    37    32    37  am
    38    34    35   1
    39    35    36   1
    40    37    38   1
    41    38    39   1
    42    39    40  ar
    43    39    47  ar
    44    40    41  ar
    45    41    42  ar
    46    42    43   1
    47    42    46  ar
    48    43    44  ar
    49    43    45  ar
    50    46    47  ar
    51     4    48   1
    52     4    49   1
    53     4    50   1
    54     9    51   1
    55    10    52   1
    56    11    53   1
    57    14    54   1
    58    16    55   1
    59    16    56   1
    60    18    57   1
    61    19    58   1
    62    21    59   1
    63    22    60   1
    64    25    61   1
    65    26    62   1
    66    26    63   1
    67    29    64   1
    68    31    65   1
    69    34    66   1
    70    34    67   1
    71    35    68   1
    72    35    69   1
    73    36    70   1
    74    36    71   1
    75    37    72   1
    76    38    73   1
    77    38    74   1
    78    40    75   1
    79    41    76   1
    80    44    77   1
    81    44    78   1
    82    45    79   1
    83    45    80   1
    84    46    81   1
    85    47    82   1
@<TRIPOS>SUBSTRUCTURE
     1  MOL      2

