@<TRIPOS>MOLECULE
3utu_ligand_006
    82    85
SMALL
GAST_HUCK
****
This file was generated by PARSER (from files_GN.cpp)

@<TRIPOS>ATOM
      1 S8         18.3631  -15.8251   26.7072 S.o2        1 MOL       0.0657
      2 CL         22.6964  -15.3744   23.6114 Cl          1 MOL      -0.0788
      3 C35        19.7907  -14.9164   26.2838 C.ar        1 MOL       0.0977
      4 C10        24.3797  -13.1904   24.6576 C.3         1 MOL       0.0596
      5 O9         23.1436  -12.6204   25.1404 O.3         1 MOL      -0.3203
      6 C5         22.1188  -13.4698   25.4991 C.ar        1 MOL       0.1052
      7 O1         18.7437  -17.3206   27.1173 O.2         1 MOL      -0.1516
      8 O10        17.6625  -15.1936   27.9938 O.2         1 MOL      -0.1516
      9 C7         20.1051  -13.6862   26.9009 C.ar        1 MOL      -0.0438
     10 C3         20.6519  -15.4342   25.2981 C.ar        1 MOL      -0.0300
     11 C6         21.2474  -12.9715   26.4974 C.ar        1 MOL      -0.0306
     12 C4         21.7863  -14.7094   24.8754 C.ar        1 MOL       0.0696
     13 C13        17.5670  -14.5488   23.5475 C.2         1 MOL       0.2048
     14 N11        17.1723  -15.8795   25.5021 N.am        1 MOL      -0.2244
     15 O14        16.8347  -13.7062   24.0703 O.2         1 MOL      -0.3945
     16 C15        16.4084  -20.1063   25.0909 C.3         1 MOL       0.0687
     17 C31        16.6550  -19.9463   26.5455 C.ar        1 MOL      -0.0116
     18 C32        15.6089  -19.5491   27.4121 C.ar        1 MOL      -0.0467
     19 C33        15.8476  -19.3410   28.7796 C.ar        1 MOL      -0.0334
     20 C44        17.1448  -19.5071   29.3094 C.ar        1 MOL       0.0883
     21 C8         18.1908  -19.9283   28.4594 C.ar        1 MOL      -0.0334
     22 C9         17.9452  -20.1441   27.0903 C.ar        1 MOL      -0.0467
     23 C40        17.3809  -19.2432   30.5622 C.1         1 MOL       0.0934
     24 N63        17.5879  -18.9898   31.6623 N.1         1 MOL      -0.3338
     25 C45        17.4683  -15.9155   24.0944 C.3         1 MOL       0.1430
     26 C12        16.3995  -16.7588   23.3195 C.3         1 MOL       0.0742
     27 C46        15.9062  -17.9431   24.0174 C.2         1 MOL       0.1821
     28 O22        14.7057  -18.0395   24.2309 O.2         1 MOL      -0.3967
     29 N14        16.7450  -18.8992   24.3904 N.am        1 MOL      -0.2739
     30 N15        18.3029  -14.1745   22.4826 N.am        1 MOL      -0.2500
     31 C16        18.3653  -12.8158   21.9882 C.3         1 MOL       0.1338
     32 C17        17.1719  -12.4435   21.2340 C.2         1 MOL       0.2037
     33 O18        16.5805  -13.3021   20.5860 O.2         1 MOL      -0.3944
     34 C34        19.6478  -12.7816   21.1242 C.3         1 MOL      -0.0104
     35 C1         19.7599  -14.2185   20.5994 C.3         1 MOL      -0.0281
     36 C2         19.1541  -15.0648   21.7368 C.3         1 MOL       0.0369
     37 N19        16.7308  -11.1867   21.2437 N.am        1 MOL      -0.2737
     38 C20        15.5710  -10.6739   20.5920 C.3         1 MOL       0.0645
     39 C21        14.4386  -10.6725   21.5538 C.ar        1 MOL      -0.0210
     40 C26        13.9170   -9.4749   22.0843 C.ar        1 MOL      -0.0584
     41 C25        12.8571   -9.5033   23.0142 C.ar        1 MOL      -0.0633
     42 C24        12.2655  -10.7239   23.4448 C.ar        1 MOL       0.0188
     43 C27        11.1929  -10.7508   24.3597 C.cat       1 MOL       0.2318
     44 N29        10.7140   -9.6959   24.9007 N.pl3       1 MOL      -0.2729
     45 N28        10.6028  -11.8271   24.7157 N.pl3       1 MOL      -0.2729
     46 C23        12.8047  -11.9174   22.8918 C.ar        1 MOL      -0.0633
     47 C22        13.8650  -11.8938   21.9650 C.ar        1 MOL      -0.0584
     48 H1         25.1891  -12.4802   24.8550 H           1 MOL       0.0578
     49 H2         24.3191  -13.3291   23.5703 H           1 MOL       0.0578
     50 H3         24.6218  -14.1486   25.1403 H           1 MOL       0.0578
     51 H4         19.4881  -13.2965   27.6191 H           1 MOL       0.0610
     52 H5         20.4272  -16.3285   24.8497 H           1 MOL       0.0614
     53 H6         21.4437  -12.0784   26.9447 H           1 MOL       0.0542
     54 H7         16.2650  -15.6396   25.7690 H           1 MOL       0.1706
     55 H8         15.3710  -20.4054   24.9077 H           1 MOL       0.0704
     56 H9         17.0315  -20.9076   24.6856 H           1 MOL       0.0704
     57 H10        14.6643  -19.4027   27.0444 H           1 MOL       0.0584
     58 H11        15.0688  -19.0505   29.3820 H           1 MOL       0.0701
     59 H12        19.1404  -20.0573   28.8193 H           1 MOL       0.0701
     60 H13        18.7218  -20.4262   26.4878 H           1 MOL       0.0584
     61 H14        18.4317  -16.4296   23.9827 H           1 MOL       0.0779
     62 H15        16.8411  -17.0968   22.3819 H           1 MOL       0.0547
     63 H16        15.5527  -16.1159   23.0587 H           1 MOL       0.0547
     64 H17        17.6882  -18.7572   24.2204 H           1 MOL       0.1881
     65 H18        18.5211  -12.1218   22.8241 H           1 MOL       0.0802
     66 H19        20.5152  -12.5545   21.7544 H           1 MOL       0.0313
     67 H20        19.6046  -12.0515   20.3100 H           1 MOL       0.0313
     68 H21        20.7980  -14.4943   20.3836 H           1 MOL       0.0287
     69 H22        19.1630  -14.3259   19.6860 H           1 MOL       0.0287
     70 H23        18.5865  -15.9023   21.3165 H           1 MOL       0.0524
     71 H24        19.9579  -15.4511   22.3689 H           1 MOL       0.0524
     72 H25        17.2427  -10.5359   21.7499 H           1 MOL       0.1878
     73 H26        15.2845  -11.2459   19.7041 H           1 MOL       0.0683
     74 H27        15.8067   -9.6617   20.2533 H           1 MOL       0.0683
     75 H28        14.3124   -8.5696   21.8093 H           1 MOL       0.0557
     76 H29        12.5245   -8.6020   23.3658 H           1 MOL       0.0599
     77 H30         9.9928   -9.7660   25.4868 H           1 MOL       0.3180
     78 H31        11.0647   -8.8527   24.7127 H           1 MOL       0.3180
     79 H32        10.8597  -12.6611   24.3821 H           1 MOL       0.3180
     80 H33         9.8914  -11.7812   25.3153 H           1 MOL       0.3180
     81 H34        12.4367  -12.8349   23.1542 H           1 MOL       0.0599
     82 H35        14.2196  -12.7817   21.5949 H           1 MOL       0.0557
@<TRIPOS>BOND
     1     1     3   1
     2     1     7   2
     3     1     8   2
     4    14     1  am
     5    12     2   1
     6     3     9  ar
     7     3    10  ar
     8     5     4   1
     9     6     5   1
    10    11     6  ar
    11    12     6  ar
    12     9    11  ar
    13    10    12  ar
    14    13    15   2
    15    25    13   1
    16    13    30  am
    17    25    14   1
    18    16    17   1
    19    29    16   1
    20    17    18  ar
    21    17    22  ar
    22    18    19  ar
    23    19    20  ar
    24    21    20  ar
    25    20    23   1
    26    22    21  ar
    27    23    24   3
    28    26    25   1
    29    27    26   1
    30    27    28   2
    31    27    29  am
    32    30    31   1
    33    30    36   1
    34    31    32   1
    35    31    34   1
    36    32    33   2
    37    32    37  am
    38    34    35   1
    39    35    36   1
    40    37    38   1
    41    38    39   1
    42    39    40  ar
    43    39    47  ar
    44    40    41  ar
    45    41    42  ar
    46    42    43   1
    47    42    46  ar
    48    43    44  ar
    49    43    45  ar
    50    46    47  ar
    51     4    48   1
    52     4    49   1
    53     4    50   1
    54     9    51   1
    55    10    52   1
    56    11    53   1
    57    14    54   1
    58    16    55   1
    59    16    56   1
    60    18    57   1
    61    19    58   1
    62    21    59   1
    63    22    60   1
    64    25    61   1
    65    26    62   1
    66    26    63   1
    67    29    64   1
    68    31    65   1
    69    34    66   1
    70    34    67   1
    71    35    68   1
    72    35    69   1
    73    36    70   1
    74    36    71   1
    75    37    72   1
    76    38    73   1
    77    38    74   1
    78    40    75   1
    79    41    76   1
    80    44    77   1
    81    44    78   1
    82    45    79   1
    83    45    80   1
    84    46    81   1
    85    47    82   1
@<TRIPOS>SUBSTRUCTURE
     1  MOL      2

