@<TRIPOS>MOLECULE
3utu_ligand_088
    82    85
SMALL
GAST_HUCK
****
This file was generated by PARSER (from files_GN.cpp)

@<TRIPOS>ATOM
      1 S8         19.9607  -14.2420   25.1890 S.o2        1 MOL       0.0657
      2 CL         21.3857  -18.9071   27.5435 Cl          1 MOL      -0.0788
      3 C35        19.6347  -15.5323   26.3162 C.ar        1 MOL       0.0977
      4 C10        19.1262  -18.1608   30.5575 C.3         1 MOL       0.0596
      5 O9         18.8957  -18.5285   29.1842 O.3         1 MOL      -0.3203
      6 C5         19.1582  -17.5448   28.2649 C.ar        1 MOL       0.1052
      7 O1         19.9421  -12.8861   26.0216 O.2         1 MOL      -0.1516
      8 O10        21.4246  -14.2660   24.5613 O.2         1 MOL      -0.1516
      9 C7         18.4874  -15.4757   27.1368 C.ar        1 MOL      -0.0438
     10 C3         20.5201  -16.6232   26.4483 C.ar        1 MOL      -0.0300
     11 C6         18.2525  -16.4713   28.1000 C.ar        1 MOL      -0.0306
     12 C4         20.2821  -17.6274   27.4105 C.ar        1 MOL       0.0696
     13 C13        19.7059  -14.4445   21.8303 C.2         1 MOL       0.2048
     14 N11        18.7877  -14.0164   23.9949 N.am        1 MOL      -0.2244
     15 O14        20.5652  -15.2933   21.6100 O.2         1 MOL      -0.3945
     16 C15        15.7072  -17.6974   24.3877 C.3         1 MOL       0.0687
     17 C31        16.6063  -18.5831   25.1709 C.ar        1 MOL      -0.0116
     18 C32        16.2737  -18.9938   26.4852 C.ar        1 MOL      -0.0467
     19 C33        17.0895  -19.8951   27.1927 C.ar        1 MOL      -0.0334
     20 C44        18.2653  -20.4030   26.6013 C.ar        1 MOL       0.0883
     21 C8         18.6093  -20.0033   25.2931 C.ar        1 MOL      -0.0334
     22 C9         17.7854  -19.1085   24.5864 C.ar        1 MOL      -0.0467
     23 C40        19.0188  -21.2496   27.2505 C.1         1 MOL       0.0934
     24 N63        19.6786  -21.9977   27.8212 N.1         1 MOL      -0.3338
     25 C45        18.6978  -14.8436   22.8300 C.3         1 MOL       0.1430
     26 C12        17.2237  -14.9223   22.2980 C.3         1 MOL       0.0742
     27 C46        16.5208  -16.1545   22.6365 C.2         1 MOL       0.1821
     28 O22        16.0768  -16.8389   21.7214 O.2         1 MOL      -0.3967
     29 N14        16.3821  -16.5258   23.9077 N.am        1 MOL      -0.2739
     30 N15        19.8095  -13.2665   21.1794 N.am        1 MOL      -0.2500
     31 C16        18.8971  -12.1432   21.2457 C.3         1 MOL       0.1338
     32 C17        17.6632  -12.3172   20.4813 C.2         1 MOL       0.2037
     33 O18        17.6227  -13.1388   19.5705 O.2         1 MOL      -0.3944
     34 C34        19.7238  -10.9467   20.7037 C.3         1 MOL      -0.0104
     35 C1         20.7250  -11.5810   19.7351 C.3         1 MOL      -0.0281
     36 C2         20.9540  -12.9698   20.3516 C.3         1 MOL       0.0369
     37 N19        16.6099  -11.5487   20.7541 N.am        1 MOL      -0.2737
     38 C20        15.2993  -11.6624   20.1913 C.3         1 MOL       0.0645
     39 C21        14.2959  -11.5083   21.2705 C.ar        1 MOL      -0.0210
     40 C26        14.0469  -10.2369   21.8274 C.ar        1 MOL      -0.0584
     41 C25        13.0694  -10.0683   22.8236 C.ar        1 MOL      -0.0633
     42 C24        12.3030  -11.1620   23.3080 C.ar        1 MOL       0.0188
     43 C27        11.2630  -10.9720   24.2430 C.cat       1 MOL       0.2318
     44 N29        10.7836   -9.8215   24.5241 N.pl3       1 MOL      -0.2729
     45 N28        10.6986  -11.9374   24.8637 N.pl3       1 MOL      -0.2729
     46 C23        12.6096  -12.4434   22.7799 C.ar        1 MOL      -0.0633
     47 C22        13.5824  -12.6165   21.7778 C.ar        1 MOL      -0.0584
     48 H1         18.9142  -19.0289   31.1804 H           1 MOL       0.0578
     49 H2         18.4610  -17.3484   30.8656 H           1 MOL       0.0578
     50 H3         20.1638  -17.8659   30.7318 H           1 MOL       0.0578
     51 H4         17.8264  -14.7012   27.0479 H           1 MOL       0.0610
     52 H5         21.3449  -16.6842   25.8470 H           1 MOL       0.0614
     53 H6         17.4281  -16.4121   28.6997 H           1 MOL       0.0542
     54 H7         18.3123  -13.1685   23.9976 H           1 MOL       0.1706
     55 H8         14.8602  -17.3570   24.9884 H           1 MOL       0.0704
     56 H9         15.2934  -18.3017   23.5754 H           1 MOL       0.0704
     57 H10        15.4129  -18.6591   26.9257 H           1 MOL       0.0584
     58 H11        16.8126  -20.1822   28.1375 H           1 MOL       0.0701
     59 H12        19.4569  -20.3628   24.8412 H           1 MOL       0.0701
     60 H13        18.0378  -18.8565   23.6280 H           1 MOL       0.0584
     61 H14        18.9516  -15.8551   23.1792 H           1 MOL       0.0779
     62 H15        17.2241  -14.8311   21.2074 H           1 MOL       0.0547
     63 H16        16.6344  -14.0790   22.6783 H           1 MOL       0.0547
     64 H17        16.7643  -15.9446   24.5803 H           1 MOL       0.1881
     65 H18        18.6489  -11.9270   22.2906 H           1 MOL       0.0802
     66 H19        20.2785  -10.4826   21.5220 H           1 MOL       0.0313
     67 H20        19.1178  -10.1753   20.2237 H           1 MOL       0.0313
     68 H21        21.6545  -11.0073   19.6682 H           1 MOL       0.0287
     69 H22        20.2818  -11.6724   18.7398 H           1 MOL       0.0287
     70 H23        21.0795  -13.7116   19.5550 H           1 MOL       0.0524
     71 H24        21.8547  -12.9520   20.9765 H           1 MOL       0.0524
     72 H25        16.7403  -10.8412   21.4117 H           1 MOL       0.1878
     73 H26        15.1532  -12.6153   19.6714 H           1 MOL       0.0683
     74 H27        15.1667  -10.8678   19.4495 H           1 MOL       0.0683
     75 H28        14.5686   -9.4195   21.5011 H           1 MOL       0.0557
     76 H29        12.9292   -9.1226   23.1888 H           1 MOL       0.0599
     77 H30        10.0780   -9.7428   25.1353 H           1 MOL       0.3180
     78 H31        11.1089   -9.0509   24.1079 H           1 MOL       0.3180
     79 H32        10.9640  -12.8216   24.7257 H           1 MOL       0.3180
     80 H33         9.9907  -11.7612   25.4503 H           1 MOL       0.3180
     81 H34        12.1090  -13.2792   23.0960 H           1 MOL       0.0599
     82 H35        13.7608  -13.5557   21.4160 H           1 MOL       0.0557
@<TRIPOS>BOND
     1     1     3   1
     2     1     7   2
     3     1     8   2
     4    14     1  am
     5    12     2   1
     6     3     9  ar
     7     3    10  ar
     8     5     4   1
     9     6     5   1
    10    11     6  ar
    11    12     6  ar
    12     9    11  ar
    13    10    12  ar
    14    13    15   2
    15    25    13   1
    16    13    30  am
    17    25    14   1
    18    16    17   1
    19    29    16   1
    20    17    18  ar
    21    17    22  ar
    22    18    19  ar
    23    19    20  ar
    24    21    20  ar
    25    20    23   1
    26    22    21  ar
    27    23    24   3
    28    26    25   1
    29    27    26   1
    30    27    28   2
    31    27    29  am
    32    30    31   1
    33    30    36   1
    34    31    32   1
    35    31    34   1
    36    32    33   2
    37    32    37  am
    38    34    35   1
    39    35    36   1
    40    37    38   1
    41    38    39   1
    42    39    40  ar
    43    39    47  ar
    44    40    41  ar
    45    41    42  ar
    46    42    43   1
    47    42    46  ar
    48    43    44  ar
    49    43    45  ar
    50    46    47  ar
    51     4    48   1
    52     4    49   1
    53     4    50   1
    54     9    51   1
    55    10    52   1
    56    11    53   1
    57    14    54   1
    58    16    55   1
    59    16    56   1
    60    18    57   1
    61    19    58   1
    62    21    59   1
    63    22    60   1
    64    25    61   1
    65    26    62   1
    66    26    63   1
    67    29    64   1
    68    31    65   1
    69    34    66   1
    70    34    67   1
    71    35    68   1
    72    35    69   1
    73    36    70   1
    74    36    71   1
    75    37    72   1
    76    38    73   1
    77    38    74   1
    78    40    75   1
    79    41    76   1
    80    44    77   1
    81    44    78   1
    82    45    79   1
    83    45    80   1
    84    46    81   1
    85    47    82   1
@<TRIPOS>SUBSTRUCTURE
     1  MOL      2

