@<TRIPOS>MOLECULE
3utu_ligand_008
    82    85
SMALL
GAST_HUCK
****
This file was generated by PARSER (from files_GN.cpp)

@<TRIPOS>ATOM
      1 S8         17.2031  -16.3798   22.1529 S.o2        1 MOL       0.0657
      2 CL         14.2801  -17.1473   17.6325 Cl          1 MOL      -0.0788
      3 C35        15.6968  -16.8031   21.3667 C.ar        1 MOL       0.0977
      4 C10        10.9145  -18.1175   20.0069 C.3         1 MOL       0.0596
      5 O9         12.2289  -18.2517   19.4421 O.3         1 MOL      -0.3203
      6 C5         13.3008  -17.6963   20.1038 C.ar        1 MOL       0.1052
      7 O1         17.6319  -17.5877   23.0952 O.2         1 MOL      -0.1516
      8 O10        18.3428  -16.2595   21.0457 O.2         1 MOL      -0.1516
      9 C7         14.6185  -17.2956   22.1304 C.ar        1 MOL      -0.0438
     10 C3         15.5615  -16.7518   19.9593 C.ar        1 MOL      -0.0300
     11 C6         13.4334  -17.7443   21.5123 C.ar        1 MOL      -0.0306
     12 C4         14.3753  -17.1947   19.3282 C.ar        1 MOL       0.0696
     13 C13        19.2162  -13.9932   22.5684 C.2         1 MOL       0.2048
     14 N11        17.0500  -15.0218   23.1571 N.am        1 MOL      -0.2244
     15 O14        19.9642  -14.9218   22.8574 O.2         1 MOL      -0.3945
     16 C15        17.9977  -16.4314   27.3995 C.3         1 MOL       0.0687
     17 C31        17.1128  -17.5879   27.0918 C.ar        1 MOL      -0.0116
     18 C32        16.1652  -17.5869   26.0367 C.ar        1 MOL      -0.0467
     19 C33        15.3394  -18.7041   25.8089 C.ar        1 MOL      -0.0334
     20 C44        15.4509  -19.8505   26.6223 C.ar        1 MOL       0.0883
     21 C8         16.3923  -19.8647   27.6714 C.ar        1 MOL      -0.0334
     22 C9         17.2149  -18.7458   27.8990 C.ar        1 MOL      -0.0467
     23 C40        14.6854  -20.8836   26.4153 C.1         1 MOL       0.0934
     24 N63        14.0071  -21.7921   26.2370 N.1         1 MOL      -0.3338
     25 C45        17.9640  -13.9240   23.3396 C.3         1 MOL       0.1430
     26 C12        18.1818  -13.6311   24.8659 C.3         1 MOL       0.0742
     27 C46        18.6125  -14.7504   25.6918 C.2         1 MOL       0.1821
     28 O22        19.7564  -15.1686   25.5663 O.2         1 MOL      -0.3967
     29 N14        17.7736  -15.2845   26.5694 N.am        1 MOL      -0.2739
     30 N15        19.5763  -13.1756   21.5577 N.am        1 MOL      -0.2500
     31 C16        18.8945  -11.9765   21.1331 C.3         1 MOL       0.1338
     32 C17        17.5984  -12.2146   20.4881 C.2         1 MOL       0.2037
     33 O18        17.4891  -13.1465   19.6997 O.2         1 MOL      -0.3944
     34 C34        19.8869  -11.2698   20.1740 C.3         1 MOL      -0.0104
     35 C1         20.7573  -12.4015   19.6235 C.3         1 MOL      -0.0281
     36 C2         20.7613  -13.4255   20.7694 C.3         1 MOL       0.0369
     37 N19        16.5892  -11.3752   20.7120 N.am        1 MOL      -0.2737
     38 C20        15.2701  -11.4265   20.1571 C.3         1 MOL       0.0645
     39 C21        14.2491  -11.3328   21.2337 C.ar        1 MOL      -0.0210
     40 C26        13.4035  -12.4186   21.5458 C.ar        1 MOL      -0.0584
     41 C25        12.4012  -12.2918   22.5264 C.ar        1 MOL      -0.0633
     42 C24        12.1963  -11.0759   23.2292 C.ar        1 MOL       0.0188
     43 C27        11.1584  -10.9334   24.1657 C.cat       1 MOL       0.2318
     44 N29        10.6306  -11.9306   24.7697 N.pl3       1 MOL      -0.2729
     45 N28        10.6533   -9.7974   24.4684 N.pl3       1 MOL      -0.2729
     46 C23        13.0703  -10.0019   22.9211 C.ar        1 MOL      -0.0633
     47 C22        14.0765  -10.1268   21.9458 C.ar        1 MOL      -0.0584
     48 H1         10.1795  -18.3211   19.2210 H           1 MOL       0.0578
     49 H2         10.7377  -17.1076   20.3743 H           1 MOL       0.0578
     50 H3         10.7855  -18.8335   20.8235 H           1 MOL       0.0578
     51 H4         14.6940  -17.3568   23.1479 H           1 MOL       0.0610
     52 H5         16.3412  -16.4276   19.3794 H           1 MOL       0.0614
     53 H6         12.6798  -18.1259   22.0952 H           1 MOL       0.0542
     54 H7         16.1993  -14.9466   23.6194 H           1 MOL       0.1706
     55 H8         19.0334  -16.7675   27.3414 H           1 MOL       0.0704
     56 H9         17.8124  -16.1156   28.4313 H           1 MOL       0.0704
     57 H10        16.0559  -16.7704   25.4288 H           1 MOL       0.0584
     58 H11        14.6499  -18.6687   25.0527 H           1 MOL       0.0701
     59 H12        16.4928  -20.6900   28.2729 H           1 MOL       0.0701
     60 H13        17.8918  -18.7823   28.6669 H           1 MOL       0.0584
     61 H14        17.3877  -13.0763   22.9879 H           1 MOL       0.0779
     62 H15        17.2323  -13.2428   25.2587 H           1 MOL       0.0547
     63 H16        18.9107  -12.8264   24.9932 H           1 MOL       0.0547
     64 H17        16.9013  -14.8645   26.6538 H           1 MOL       0.1881
     65 H18        18.7515  -11.3191   21.9992 H           1 MOL       0.0802
     66 H19        20.5171  -10.5723   20.7326 H           1 MOL       0.0313
     67 H20        19.3980  -10.7207   19.3669 H           1 MOL       0.0313
     68 H21        21.7680  -12.0634   19.3766 H           1 MOL       0.0287
     69 H22        20.2934  -12.8338   18.7283 H           1 MOL       0.0287
     70 H23        20.7462  -14.4354   20.3488 H           1 MOL       0.0524
     71 H24        21.6559  -13.3008   21.3864 H           1 MOL       0.0524
     72 H25        16.7749  -10.6223   21.3005 H           1 MOL       0.1878
     73 H26        15.1179  -12.3273   19.5530 H           1 MOL       0.0683
     74 H27        15.1528  -10.5721   19.4863 H           1 MOL       0.0683
     75 H28        13.4982  -13.3063   21.0474 H           1 MOL       0.0557
     76 H29        11.7942  -13.1018   22.6932 H           1 MOL       0.0599
     77 H30         9.9281  -11.7921   25.3687 H           1 MOL       0.3180
     78 H31        10.9308  -12.8006   24.6125 H           1 MOL       0.3180
     79 H32        10.9607   -9.0137   24.0622 H           1 MOL       0.3180
     80 H33         9.9536   -9.7447   25.0864 H           1 MOL       0.3180
     81 H34        12.9919   -9.1064   23.4144 H           1 MOL       0.0599
     82 H35        14.6769   -9.3215   21.7485 H           1 MOL       0.0557
@<TRIPOS>BOND
     1     1     3   1
     2     1     7   2
     3     1     8   2
     4    14     1  am
     5    12     2   1
     6     3     9  ar
     7     3    10  ar
     8     5     4   1
     9     6     5   1
    10    11     6  ar
    11    12     6  ar
    12     9    11  ar
    13    10    12  ar
    14    13    15   2
    15    25    13   1
    16    13    30  am
    17    25    14   1
    18    16    17   1
    19    29    16   1
    20    17    18  ar
    21    17    22  ar
    22    18    19  ar
    23    19    20  ar
    24    21    20  ar
    25    20    23   1
    26    22    21  ar
    27    23    24   3
    28    26    25   1
    29    27    26   1
    30    27    28   2
    31    27    29  am
    32    30    31   1
    33    30    36   1
    34    31    32   1
    35    31    34   1
    36    32    33   2
    37    32    37  am
    38    34    35   1
    39    35    36   1
    40    37    38   1
    41    38    39   1
    42    39    40  ar
    43    39    47  ar
    44    40    41  ar
    45    41    42  ar
    46    42    43   1
    47    42    46  ar
    48    43    44  ar
    49    43    45  ar
    50    46    47  ar
    51     4    48   1
    52     4    49   1
    53     4    50   1
    54     9    51   1
    55    10    52   1
    56    11    53   1
    57    14    54   1
    58    16    55   1
    59    16    56   1
    60    18    57   1
    61    19    58   1
    62    21    59   1
    63    22    60   1
    64    25    61   1
    65    26    62   1
    66    26    63   1
    67    29    64   1
    68    31    65   1
    69    34    66   1
    70    34    67   1
    71    35    68   1
    72    35    69   1
    73    36    70   1
    74    36    71   1
    75    37    72   1
    76    38    73   1
    77    38    74   1
    78    40    75   1
    79    41    76   1
    80    44    77   1
    81    44    78   1
    82    45    79   1
    83    45    80   1
    84    46    81   1
    85    47    82   1
@<TRIPOS>SUBSTRUCTURE
     1  MOL      2

