@<TRIPOS>MOLECULE
3utu_ligand_040
    82    85
SMALL
GAST_HUCK
****
This file was generated by PARSER (from files_GN.cpp)

@<TRIPOS>ATOM
      1 S8         15.4570  -16.1487   21.8422 S.o2        1 MOL       0.0657
      2 CL         15.4568  -15.3404   16.5019 Cl          1 MOL      -0.0788
      3 C35        15.7343  -16.7442   20.2355 C.ar        1 MOL       0.0977
      4 C10        17.7083  -18.1326   15.8754 C.3         1 MOL       0.0596
      5 O9         16.3487  -18.2090   16.3456 O.3         1 MOL      -0.3203
      6 C5         16.1736  -17.7093   17.6082 C.ar        1 MOL       0.1052
      7 O1         14.9303  -14.6494   21.9137 O.2         1 MOL      -0.1516
      8 O10        14.2237  -16.9596   22.4335 O.2         1 MOL      -0.1516
      9 C7         16.1569  -18.0721   20.0281 C.ar        1 MOL      -0.0438
     10 C3         15.5191  -15.9054   19.1215 C.ar        1 MOL      -0.0300
     11 C6         16.3660  -18.5549   18.7222 C.ar        1 MOL      -0.0306
     12 C4         15.7343  -16.3809   17.8102 C.ar        1 MOL       0.0696
     13 C13        17.8902  -14.3536   22.5871 C.2         1 MOL       0.2048
     14 N11        16.6782  -16.4229   22.9764 N.am        1 MOL      -0.2244
     15 O14        17.2659  -13.6268   23.3606 O.2         1 MOL      -0.3945
     16 C15        22.1399  -15.0555   24.0905 C.3         1 MOL       0.0687
     17 C31        21.9669  -14.0654   25.1756 C.ar        1 MOL      -0.0116
     18 C32        21.2842  -12.8481   24.9365 C.ar        1 MOL      -0.0467
     19 C33        21.0362  -11.9409   25.9881 C.ar        1 MOL      -0.0334
     20 C44        21.4631  -12.2449   27.2995 C.ar        1 MOL       0.0883
     21 C8         22.1624  -13.4477   27.5392 C.ar        1 MOL      -0.0334
     22 C9         22.4055  -14.3491   26.4887 C.ar        1 MOL      -0.0467
     23 C40        21.2218  -11.4179   28.2733 C.1         1 MOL       0.0934
     24 N63        21.0203  -10.6861   29.1342 N.1         1 MOL      -0.3338
     25 C45        17.9433  -15.7548   23.0664 C.3         1 MOL       0.1430
     26 C12        19.0790  -16.7555   22.6699 C.3         1 MOL       0.0742
     27 C46        20.4353  -16.2173   22.7370 C.2         1 MOL       0.1821
     28 O22        21.1946  -16.3853   21.7871 O.2         1 MOL      -0.3967
     29 N14        20.8662  -15.6579   23.8584 N.am        1 MOL      -0.2739
     30 N15        18.3608  -13.7603   21.4638 N.am        1 MOL      -0.2500
     31 C16        18.2104  -12.3418   21.1991 C.3         1 MOL       0.1338
     32 C17        16.8397  -11.9653   20.8734 C.2         1 MOL       0.2037
     33 O18        16.0934  -12.8008   20.3789 O.2         1 MOL      -0.3944
     34 C34        19.1680  -12.0086   20.0215 C.3         1 MOL      -0.0104
     35 C1         19.9977  -13.2832   19.8487 C.3         1 MOL      -0.0281
     36 C2         19.0458  -14.3746   20.3593 C.3         1 MOL       0.0369
     37 N19        16.4905  -10.6891   20.9149 N.am        1 MOL      -0.2737
     38 C20        15.2538  -10.1215   20.4807 C.3         1 MOL       0.0645
     39 C21        14.1995  -10.2345   21.5162 C.ar        1 MOL      -0.0210
     40 C26        13.7669   -9.1068   22.2445 C.ar        1 MOL      -0.0584
     41 C25        12.7615   -9.2209   23.2209 C.ar        1 MOL      -0.0633
     42 C24        12.1389  -10.4651   23.5130 C.ar        1 MOL       0.0188
     43 C27        11.1044  -10.5665   24.4602 C.cat       1 MOL       0.2318
     44 N29        10.5818   -9.5395   25.0177 N.pl3       1 MOL      -0.2729
     45 N28        10.5934  -11.6794   24.8287 N.pl3       1 MOL      -0.2729
     46 C23        12.5833  -11.5908   22.7692 C.ar        1 MOL      -0.0633
     47 C22        13.5883  -11.4769   21.7910 C.ar        1 MOL      -0.0584
     48 H1         17.7386  -18.5404   14.8622 H           1 MOL       0.0578
     49 H2         18.3825  -18.7219   16.4999 H           1 MOL       0.0578
     50 H3         18.0613  -17.0972   15.8321 H           1 MOL       0.0578
     51 H4         16.3061  -18.7004   20.8227 H           1 MOL       0.0610
     52 H5         15.1962  -14.9459   19.2595 H           1 MOL       0.0614
     53 H6         16.6584  -19.5236   18.5827 H           1 MOL       0.0542
     54 H7         16.5596  -17.2115   23.5328 H           1 MOL       0.1706
     55 H8         22.8481  -15.8388   24.3715 H           1 MOL       0.0704
     56 H9         22.5227  -14.5535   23.1981 H           1 MOL       0.0704
     57 H10        20.9456  -12.6241   23.9970 H           1 MOL       0.0584
     58 H11        20.5358  -11.0700   25.7830 H           1 MOL       0.0701
     59 H12        22.4996  -13.6844   28.4794 H           1 MOL       0.0701
     60 H13        22.8849  -15.2295   26.6982 H           1 MOL       0.0584
     61 H14        18.0731  -15.6672   24.1522 H           1 MOL       0.0779
     62 H15        18.8565  -17.1809   21.6871 H           1 MOL       0.0547
     63 H16        19.0468  -17.5913   23.3767 H           1 MOL       0.0547
     64 H17        20.2277  -15.5927   24.5917 H           1 MOL       0.1881
     65 H18        18.5623  -11.7839   22.0754 H           1 MOL       0.0802
     66 H19        19.8138  -11.1525   20.2479 H           1 MOL       0.0313
     67 H20        18.6361  -11.8095   19.0801 H           1 MOL       0.0313
     68 H21        20.8835  -13.2435   20.4840 H           1 MOL       0.0287
     69 H22        20.2901  -13.4556   18.8117 H           1 MOL       0.0287
     70 H23        18.3033  -14.6495   19.5898 H           1 MOL       0.0524
     71 H24        19.6493  -15.2507   20.5884 H           1 MOL       0.0524
     72 H25        17.1631  -10.0651   21.2204 H           1 MOL       0.1878
     73 H26        14.9110  -10.5714   19.5432 H           1 MOL       0.0683
     74 H27        15.4568   -9.0721   20.2585 H           1 MOL       0.0683
     75 H28        14.1824   -8.1864   22.0699 H           1 MOL       0.0557
     76 H29        12.4944   -8.3641   23.7167 H           1 MOL       0.0599
     77 H30         9.8776   -9.6449   25.6169 H           1 MOL       0.3180
     78 H31        10.8689   -8.6779   24.8052 H           1 MOL       0.3180
     79 H32        10.8924  -12.4966   24.4815 H           1 MOL       0.3180
     80 H33         9.8861  -11.6809   25.4379 H           1 MOL       0.3180
     81 H34        12.1578  -12.5124   22.9091 H           1 MOL       0.0599
     82 H35        13.8487  -12.3107   21.2603 H           1 MOL       0.0557
@<TRIPOS>BOND
     1     1     3   1
     2     1     7   2
     3     1     8   2
     4    14     1  am
     5    12     2   1
     6     3     9  ar
     7     3    10  ar
     8     5     4   1
     9     6     5   1
    10    11     6  ar
    11    12     6  ar
    12     9    11  ar
    13    10    12  ar
    14    13    15   2
    15    25    13   1
    16    13    30  am
    17    25    14   1
    18    16    17   1
    19    29    16   1
    20    17    18  ar
    21    17    22  ar
    22    18    19  ar
    23    19    20  ar
    24    21    20  ar
    25    20    23   1
    26    22    21  ar
    27    23    24   3
    28    26    25   1
    29    27    26   1
    30    27    28   2
    31    27    29  am
    32    30    31   1
    33    30    36   1
    34    31    32   1
    35    31    34   1
    36    32    33   2
    37    32    37  am
    38    34    35   1
    39    35    36   1
    40    37    38   1
    41    38    39   1
    42    39    40  ar
    43    39    47  ar
    44    40    41  ar
    45    41    42  ar
    46    42    43   1
    47    42    46  ar
    48    43    44  ar
    49    43    45  ar
    50    46    47  ar
    51     4    48   1
    52     4    49   1
    53     4    50   1
    54     9    51   1
    55    10    52   1
    56    11    53   1
    57    14    54   1
    58    16    55   1
    59    16    56   1
    60    18    57   1
    61    19    58   1
    62    21    59   1
    63    22    60   1
    64    25    61   1
    65    26    62   1
    66    26    63   1
    67    29    64   1
    68    31    65   1
    69    34    66   1
    70    34    67   1
    71    35    68   1
    72    35    69   1
    73    36    70   1
    74    36    71   1
    75    37    72   1
    76    38    73   1
    77    38    74   1
    78    40    75   1
    79    41    76   1
    80    44    77   1
    81    44    78   1
    82    45    79   1
    83    45    80   1
    84    46    81   1
    85    47    82   1
@<TRIPOS>SUBSTRUCTURE
     1  MOL      2

