@<TRIPOS>MOLECULE
3utu_ligand_013
    82    85
SMALL
GAST_HUCK
****
This file was generated by PARSER (from files_GN.cpp)

@<TRIPOS>ATOM
      1 S8         16.9188  -17.2645   24.3287 S.o2        1 MOL       0.0657
      2 CL         13.0069  -18.1445   20.6862 Cl          1 MOL      -0.0788
      3 C35        15.8846  -18.3647   23.4534 C.ar        1 MOL       0.0977
      4 C10        12.1812  -21.3479   21.9693 C.3         1 MOL       0.0596
      5 O9         13.4461  -21.0645   21.3412 O.3         1 MOL      -0.3203
      6 C5         14.2086  -20.1621   22.0354 C.ar        1 MOL       0.1052
      7 O1         16.1933  -16.9567   25.7092 O.2         1 MOL      -0.1516
      8 O10        18.3178  -17.9647   24.6058 O.2         1 MOL      -0.1516
      9 C7         15.9931  -19.7573   23.6582 C.ar        1 MOL      -0.0438
     10 C3         14.9326  -17.8794   22.5289 C.ar        1 MOL      -0.0300
     11 C6         15.1649  -20.6466   22.9496 C.ar        1 MOL      -0.0306
     12 C4         14.1065  -18.7711   21.8124 C.ar        1 MOL       0.0696
     13 C13        17.5099  -13.5619   22.9951 C.2         1 MOL       0.2048
     14 N11        17.1881  -15.8271   23.4816 N.am        1 MOL      -0.2244
     15 O14        16.8122  -12.5642   23.1128 O.2         1 MOL      -0.3945
     16 C15        21.2233  -12.5106   26.6994 C.3         1 MOL       0.0687
     17 C31        22.3328  -13.1180   25.9076 C.ar        1 MOL      -0.0116
     18 C32        23.0423  -12.3786   24.9322 C.ar        1 MOL      -0.0467
     19 C33        24.0913  -12.9670   24.1953 C.ar        1 MOL      -0.0334
     20 C44        24.4414  -14.3136   24.4185 C.ar        1 MOL       0.0883
     21 C8         23.7310  -15.0662   25.3795 C.ar        1 MOL      -0.0334
     22 C9         22.6913  -14.4733   26.1151 C.ar        1 MOL      -0.0467
     23 C40        25.4027  -14.8711   23.7305 C.1         1 MOL       0.0934
     24 N63        26.2470  -15.3586   23.1249 N.1         1 MOL      -0.3338
     25 C45        17.3630  -14.5390   24.0796 C.3         1 MOL       0.1430
     26 C12        18.4714  -14.5089   25.1906 C.3         1 MOL       0.0742
     27 C46        19.2984  -13.3213   25.4000 C.2         1 MOL       0.1821
     28 O22        19.5765  -12.5903   24.4607 O.2         1 MOL      -0.3967
     29 N14        20.0041  -13.2489   26.5233 N.am        1 MOL      -0.2739
     30 N15        18.3229  -13.6357   21.9252 N.am        1 MOL      -0.2500
     31 C16        18.5006  -12.5456   20.9897 C.3         1 MOL       0.1338
     32 C17        17.2688  -12.1347   20.3125 C.2         1 MOL       0.2037
     33 O18        16.7835  -12.8769   19.4624 O.2         1 MOL      -0.3944
     34 C34        19.6001  -13.0017   19.9965 C.3         1 MOL      -0.0104
     35 C1         20.3000  -14.1463   20.7324 C.3         1 MOL      -0.0281
     36 C2         19.1955  -14.7290   21.6250 C.3         1 MOL       0.0369
     37 N19        16.6277  -11.0522   20.7391 N.am        1 MOL      -0.2737
     38 C20        15.3612  -10.5696   20.2924 C.3         1 MOL       0.0645
     39 C21        14.3669  -10.6178   21.3966 C.ar        1 MOL      -0.0210
     40 C26        13.8479  -11.8553   21.8418 C.ar        1 MOL      -0.0584
     41 C25        12.8486  -11.9078   22.8309 C.ar        1 MOL      -0.0633
     42 C24        12.3257  -10.7266   23.4218 C.ar        1 MOL       0.0188
     43 C27        11.2568  -10.7707   24.3413 C.cat       1 MOL       0.2318
     44 N29        10.6660  -11.8500   24.7007 N.pl3       1 MOL      -0.2729
     45 N28        10.7588   -9.7242   24.8882 N.pl3       1 MOL      -0.2729
     46 C23        12.8994   -9.4953   23.0073 C.ar        1 MOL      -0.0633
     47 C22        13.8940   -9.4403   22.0144 C.ar        1 MOL      -0.0584
     48 H1         11.6685  -22.1109   21.3771 H           1 MOL       0.0578
     49 H2         11.5486  -20.4570   21.9953 H           1 MOL       0.0578
     50 H3         12.3097  -21.7335   22.9863 H           1 MOL       0.0578
     51 H4         16.6745  -20.1347   24.3188 H           1 MOL       0.0610
     52 H5         14.8408  -16.8706   22.3736 H           1 MOL       0.0614
     53 H6         15.2569  -21.6519   23.1047 H           1 MOL       0.0542
     54 H7         17.0051  -15.8553   22.5271 H           1 MOL       0.1706
     55 H8         21.0627  -11.4577   26.4520 H           1 MOL       0.0704
     56 H9         21.5010  -12.5578   27.7587 H           1 MOL       0.0704
     57 H10        22.8027  -11.3995   24.7537 H           1 MOL       0.0584
     58 H11        24.5868  -12.4019   23.4983 H           1 MOL       0.0701
     59 H12        23.9663  -16.0473   25.5565 H           1 MOL       0.0701
     60 H13        22.1959  -15.0310   26.8124 H           1 MOL       0.0584
     61 H14        16.4254  -14.3384   24.6033 H           1 MOL       0.0779
     62 H15        19.1651  -15.3362   25.0442 H           1 MOL       0.0547
     63 H16        17.9734  -14.7334   26.1458 H           1 MOL       0.0547
     64 H17        19.7532  -13.8471   27.2495 H           1 MOL       0.1881
     65 H18        18.9172  -11.7037   21.5631 H           1 MOL       0.0802
     66 H19        20.2999  -12.1922   19.7672 H           1 MOL       0.0313
     67 H20        19.1829  -13.3792   19.0586 H           1 MOL       0.0313
     68 H21        21.1120  -13.7503   21.3484 H           1 MOL       0.0287
     69 H22        20.7104  -14.8894   20.0419 H           1 MOL       0.0287
     70 H23        18.6479  -15.5037   21.0860 H           1 MOL       0.0524
     71 H24        19.6617  -15.1727   22.4981 H           1 MOL       0.0524
     72 H25        17.0271  -10.5545   21.4699 H           1 MOL       0.1878
     73 H26        14.9748  -11.1235   19.4297 H           1 MOL       0.0683
     74 H27        15.5199   -9.5444   19.9588 H           1 MOL       0.0683
     75 H28        14.1769  -12.7291   21.4243 H           1 MOL       0.0557
     76 H29        12.4978  -12.8306   23.0992 H           1 MOL       0.0599
     77 H30         9.9363  -11.8057   25.2945 H           1 MOL       0.3180
     78 H31        10.9208  -12.6855   24.3630 H           1 MOL       0.3180
     79 H32        11.0980   -8.8731   24.7027 H           1 MOL       0.3180
     80 H33        10.0225   -9.7988   25.4683 H           1 MOL       0.3180
     81 H34        12.5838   -8.6062   23.3998 H           1 MOL       0.0599
     82 H35        14.2614   -8.5271   21.7351 H           1 MOL       0.0557
@<TRIPOS>BOND
     1     1     3   1
     2     1     7   2
     3     1     8   2
     4    14     1  am
     5    12     2   1
     6     3     9  ar
     7     3    10  ar
     8     5     4   1
     9     6     5   1
    10    11     6  ar
    11    12     6  ar
    12     9    11  ar
    13    10    12  ar
    14    13    15   2
    15    25    13   1
    16    13    30  am
    17    25    14   1
    18    16    17   1
    19    29    16   1
    20    17    18  ar
    21    17    22  ar
    22    18    19  ar
    23    19    20  ar
    24    21    20  ar
    25    20    23   1
    26    22    21  ar
    27    23    24   3
    28    26    25   1
    29    27    26   1
    30    27    28   2
    31    27    29  am
    32    30    31   1
    33    30    36   1
    34    31    32   1
    35    31    34   1
    36    32    33   2
    37    32    37  am
    38    34    35   1
    39    35    36   1
    40    37    38   1
    41    38    39   1
    42    39    40  ar
    43    39    47  ar
    44    40    41  ar
    45    41    42  ar
    46    42    43   1
    47    42    46  ar
    48    43    44  ar
    49    43    45  ar
    50    46    47  ar
    51     4    48   1
    52     4    49   1
    53     4    50   1
    54     9    51   1
    55    10    52   1
    56    11    53   1
    57    14    54   1
    58    16    55   1
    59    16    56   1
    60    18    57   1
    61    19    58   1
    62    21    59   1
    63    22    60   1
    64    25    61   1
    65    26    62   1
    66    26    63   1
    67    29    64   1
    68    31    65   1
    69    34    66   1
    70    34    67   1
    71    35    68   1
    72    35    69   1
    73    36    70   1
    74    36    71   1
    75    37    72   1
    76    38    73   1
    77    38    74   1
    78    40    75   1
    79    41    76   1
    80    44    77   1
    81    44    78   1
    82    45    79   1
    83    45    80   1
    84    46    81   1
    85    47    82   1
@<TRIPOS>SUBSTRUCTURE
     1  MOL      2

