@<TRIPOS>MOLECULE
3utu_ligand_056
    82    85
SMALL
GAST_HUCK
****
This file was generated by PARSER (from files_GN.cpp)

@<TRIPOS>ATOM
      1 S8         17.9741  -14.9446   23.7589 S.o2        1 MOL       0.0657
      2 CL         21.2213  -12.2347   27.1218 Cl          1 MOL      -0.0788
      3 C35        19.4807  -14.1313   24.0863 C.ar        1 MOL       0.0977
      4 C10        24.3268  -12.9841   24.5220 C.3         1 MOL       0.0596
      5 O9         23.1459  -12.2046   24.8069 O.3         1 MOL      -0.3203
      6 C5         21.9513  -12.8423   24.5723 C.ar        1 MOL       0.1052
      7 O1         18.3366  -16.4748   23.4908 O.2         1 MOL      -0.1516
      8 O10        16.9334  -14.7900   24.9464 O.2         1 MOL      -0.1516
      9 C7         20.4485  -14.0484   23.0647 C.ar        1 MOL      -0.0438
     10 C3         19.7354  -13.5481   25.3394 C.ar        1 MOL      -0.0300
     11 C6         21.6632  -13.3950   23.3039 C.ar        1 MOL      -0.0306
     12 C4         20.9672  -12.9045   25.5840 C.ar        1 MOL       0.0696
     13 C13        16.9192  -14.0748   20.0186 C.2         1 MOL       0.2048
     14 N11        17.3310  -14.2573   22.3707 N.am        1 MOL      -0.2244
     15 O14        17.4982  -12.9992   20.1686 O.2         1 MOL      -0.3945
     16 C15        15.2683  -18.3803   23.9808 C.3         1 MOL       0.0687
     17 C31        16.4841  -18.4355   24.8378 C.ar        1 MOL      -0.0116
     18 C32        17.4933  -19.4079   24.6230 C.ar        1 MOL      -0.0467
     19 C33        18.6681  -19.4009   25.3952 C.ar        1 MOL      -0.0334
     20 C44        18.8595  -18.4312   26.3981 C.ar        1 MOL       0.0883
     21 C8         17.8427  -17.4798   26.6425 C.ar        1 MOL      -0.0334
     22 C9         16.6665  -17.4959   25.8766 C.ar        1 MOL      -0.0467
     23 C40        19.9625  -18.3978   27.0850 C.1         1 MOL       0.0934
     24 N63        20.9405  -18.3624   27.6942 N.1         1 MOL      -0.3338
     25 C45        16.8225  -14.9484   21.2123 C.3         1 MOL       0.1430
     26 C12        15.3557  -15.4560   21.5485 C.3         1 MOL       0.0742
     27 C46        15.3619  -16.8357   22.0486 C.2         1 MOL       0.1821
     28 O22        15.5970  -17.7234   21.2397 O.2         1 MOL      -0.3967
     29 N14        15.1682  -17.1060   23.3347 N.am        1 MOL      -0.2739
     30 N15        16.4726  -14.3572   18.7739 N.am        1 MOL      -0.2500
     31 C16        16.5053  -13.3865   17.6894 C.3         1 MOL       0.1338
     32 C17        15.9233  -12.0651   17.9357 C.2         1 MOL       0.2037
     33 O18        16.3498  -11.1174   17.2829 O.2         1 MOL      -0.3944
     34 C34        15.7768  -14.0870   16.5180 C.3         1 MOL      -0.0104
     35 C1         15.9989  -15.5837   16.7818 C.3         1 MOL      -0.0281
     36 C2         16.0394  -15.6633   18.3311 C.3         1 MOL       0.0369
     37 N19        15.0239  -11.8863   18.8950 N.am        1 MOL      -0.2737
     38 C20        14.5210  -10.6287   19.3521 C.3         1 MOL       0.0645
     39 C21        13.6913  -10.7557   20.5765 C.ar        1 MOL      -0.0210
     40 C26        13.9168   -9.9311   21.7007 C.ar        1 MOL      -0.0584
     41 C25        13.0539   -9.9658   22.8071 C.ar        1 MOL      -0.0633
     42 C24        11.9395  -10.8448   22.8388 C.ar        1 MOL       0.0188
     43 C27        11.0176  -10.8168   23.8928 C.cat       1 MOL       0.2318
     44 N29        10.5751   -9.7141   24.3577 N.pl3       1 MOL      -0.2729
     45 N28        10.5425  -11.8752   24.4174 N.pl3       1 MOL      -0.2729
     46 C23        11.7520  -11.7078   21.7312 C.ar        1 MOL      -0.0633
     47 C22        12.6003  -11.6576   20.6139 C.ar        1 MOL      -0.0584
     48 H1         25.1999  -12.4396   24.8739 H           1 MOL       0.0578
     49 H2         24.4466  -13.1362   23.4457 H           1 MOL       0.0578
     50 H3         24.2934  -13.9547   25.0254 H           1 MOL       0.0578
     51 H4         20.2722  -14.4604   22.1447 H           1 MOL       0.0610
     52 H5         19.0327  -13.5940   26.0820 H           1 MOL       0.0614
     53 H6         22.3503  -13.3395   22.5451 H           1 MOL       0.0542
     54 H7         17.1328  -13.3032   22.4272 H           1 MOL       0.1706
     55 H8         14.3859  -18.5115   24.6119 H           1 MOL       0.0704
     56 H9         15.2615  -19.2012   23.2508 H           1 MOL       0.0704
     57 H10        17.3815  -20.1113   23.8897 H           1 MOL       0.0584
     58 H11        19.3862  -20.1064   25.2018 H           1 MOL       0.0701
     59 H12        17.9563  -16.7652   27.3659 H           1 MOL       0.0701
     60 H13        15.9488  -16.7892   26.0590 H           1 MOL       0.0584
     61 H14        17.4962  -15.7858   21.0065 H           1 MOL       0.0779
     62 H15        14.7105  -15.3987   20.6754 H           1 MOL       0.0547
     63 H16        14.9041  -14.7840   22.3045 H           1 MOL       0.0547
     64 H17        14.9732  -16.3430   23.9061 H           1 MOL       0.1881
     65 H18        17.5618  -13.2549   17.4206 H           1 MOL       0.0802
     66 H19        16.1661  -13.7956   15.5421 H           1 MOL       0.0313
     67 H20        14.6995  -13.8952   16.5477 H           1 MOL       0.0313
     68 H21        16.9547  -15.9087   16.3688 H           1 MOL       0.0287
     69 H22        15.1939  -16.1970   16.3677 H           1 MOL       0.0287
     70 H23        15.0438  -15.9020   18.7066 H           1 MOL       0.0524
     71 H24        16.7693  -16.4382   18.6357 H           1 MOL       0.0524
     72 H25        14.7181  -12.6771   19.3633 H           1 MOL       0.1878
     73 H26        13.9127  -10.1829   18.5604 H           1 MOL       0.0683
     74 H27        15.3756   -9.9736   19.5461 H           1 MOL       0.0683
     75 H28        14.7008   -9.2727   21.7095 H           1 MOL       0.0557
     76 H29        13.2454   -9.3398   23.5920 H           1 MOL       0.0599
     77 H30         9.9231   -9.7178   25.0325 H           1 MOL       0.3180
     78 H31        10.8536   -8.8972   24.0006 H           1 MOL       0.3180
     79 H32        10.8248  -12.7261   24.1412 H           1 MOL       0.3180
     80 H33         9.9054  -11.8138   25.0998 H           1 MOL       0.3180
     81 H34        10.9598  -12.3551   21.7056 H           1 MOL       0.0599
     82 H35        12.4144  -12.2731   19.8178 H           1 MOL       0.0557
@<TRIPOS>BOND
     1     1     3   1
     2     1     7   2
     3     1     8   2
     4    14     1  am
     5    12     2   1
     6     3     9  ar
     7     3    10  ar
     8     5     4   1
     9     6     5   1
    10    11     6  ar
    11    12     6  ar
    12     9    11  ar
    13    10    12  ar
    14    13    15   2
    15    25    13   1
    16    13    30  am
    17    25    14   1
    18    16    17   1
    19    29    16   1
    20    17    18  ar
    21    17    22  ar
    22    18    19  ar
    23    19    20  ar
    24    21    20  ar
    25    20    23   1
    26    22    21  ar
    27    23    24   3
    28    26    25   1
    29    27    26   1
    30    27    28   2
    31    27    29  am
    32    30    31   1
    33    30    36   1
    34    31    32   1
    35    31    34   1
    36    32    33   2
    37    32    37  am
    38    34    35   1
    39    35    36   1
    40    37    38   1
    41    38    39   1
    42    39    40  ar
    43    39    47  ar
    44    40    41  ar
    45    41    42  ar
    46    42    43   1
    47    42    46  ar
    48    43    44  ar
    49    43    45  ar
    50    46    47  ar
    51     4    48   1
    52     4    49   1
    53     4    50   1
    54     9    51   1
    55    10    52   1
    56    11    53   1
    57    14    54   1
    58    16    55   1
    59    16    56   1
    60    18    57   1
    61    19    58   1
    62    21    59   1
    63    22    60   1
    64    25    61   1
    65    26    62   1
    66    26    63   1
    67    29    64   1
    68    31    65   1
    69    34    66   1
    70    34    67   1
    71    35    68   1
    72    35    69   1
    73    36    70   1
    74    36    71   1
    75    37    72   1
    76    38    73   1
    77    38    74   1
    78    40    75   1
    79    41    76   1
    80    44    77   1
    81    44    78   1
    82    45    79   1
    83    45    80   1
    84    46    81   1
    85    47    82   1
@<TRIPOS>SUBSTRUCTURE
     1  MOL      2

