@<TRIPOS>MOLECULE
3utu_ligand_073
    82    85
SMALL
GAST_HUCK
****
This file was generated by PARSER (from files_GN.cpp)

@<TRIPOS>ATOM
      1 S8         19.7581  -18.0029   23.4389 S.o2        1 MOL       0.0657
      2 CL         23.9475  -20.9926   21.7843 Cl          1 MOL      -0.0788
      3 C35        21.4606  -18.1560   23.0909 C.ar        1 MOL       0.0977
      4 C10        25.9381  -17.8956   21.0064 C.3         1 MOL       0.0596
      5 O9         25.5690  -18.5054   22.2586 O.3         1 MOL      -0.3203
      6 C5         24.2227  -18.4044   22.5282 C.ar        1 MOL       0.1052
      7 O1         18.9613  -18.8448   22.3542 O.2         1 MOL      -0.1516
      8 O10        19.5090  -18.6175   24.8888 O.2         1 MOL      -0.1516
      9 C7         22.3344  -17.0717   23.3003 C.ar        1 MOL      -0.0438
     10 C3         21.9866  -19.3806   22.6182 C.ar        1 MOL      -0.0300
     11 C6         23.7085  -17.1930   23.0363 C.ar        1 MOL      -0.0306
     12 C4         23.3576  -19.5120   22.3389 C.ar        1 MOL       0.0696
     13 C13        17.9356  -14.4986   22.8802 C.2         1 MOL       0.2048
     14 N11        19.2807  -16.3904   23.3804 N.am        1 MOL      -0.2244
     15 O14        17.2004  -13.7646   23.5324 O.2         1 MOL      -0.3945
     16 C15        19.3748  -14.6962   27.0792 C.3         1 MOL       0.0687
     17 C31        20.6665  -14.2362   26.5106 C.ar        1 MOL      -0.0116
     18 C32        20.8064  -12.9168   26.0202 C.ar        1 MOL      -0.0467
     19 C33        22.0225  -12.4671   25.4737 C.ar        1 MOL      -0.0334
     20 C44        23.1246  -13.3480   25.3810 C.ar        1 MOL       0.0883
     21 C8         23.0026  -14.6610   25.8781 C.ar        1 MOL      -0.0334
     22 C9         21.7870  -15.0992   26.4389 C.ar        1 MOL      -0.0467
     23 C40        24.2304  -12.9608   24.8123 C.1         1 MOL       0.0934
     24 N63        25.2080  -12.6310   24.3042 N.1         1 MOL      -0.3338
     25 C45        17.9325  -15.9299   23.2416 C.3         1 MOL       0.1430
     26 C12        17.1232  -16.3408   24.5268 C.3         1 MOL       0.0742
     27 C46        17.8082  -16.1095   25.7931 C.2         1 MOL       0.1821
     28 O22        17.8458  -17.0256   26.6062 O.2         1 MOL      -0.3967
     29 N14        18.4495  -14.9703   26.0239 N.am        1 MOL      -0.2739
     30 N15        18.6144  -13.9356   21.8564 N.am        1 MOL      -0.2500
     31 C16        18.5207  -12.5286   21.5242 C.3         1 MOL       0.1338
     32 C17        17.2761  -12.2033   20.8311 C.2         1 MOL       0.2037
     33 O18        16.8234  -12.9790   19.9921 O.2         1 MOL      -0.3944
     34 C34        19.7584  -12.2583   20.6447 C.3         1 MOL      -0.0104
     35 C1         19.9786  -13.5910   19.9277 C.3         1 MOL      -0.0281
     36 C2         19.5135  -14.6275   20.9736 C.3         1 MOL       0.0369
     37 N19        16.6780  -11.0515   21.0777 N.am        1 MOL      -0.2737
     38 C20        15.4839  -10.5415   20.4823 C.3         1 MOL       0.0645
     39 C21        14.3899  -10.5739   21.4837 C.ar        1 MOL      -0.0210
     40 C26        13.8323  -11.8066   21.8829 C.ar        1 MOL      -0.0584
     41 C25        12.7978  -11.8590   22.8337 C.ar        1 MOL      -0.0633
     42 C24        12.2742  -10.6809   23.4321 C.ar        1 MOL       0.0188
     43 C27        11.2111  -10.7283   24.3568 C.cat       1 MOL       0.2318
     44 N29        10.7149   -9.6821   24.8996 N.pl3       1 MOL      -0.2729
     45 N28        10.6357  -11.8118   24.7218 N.pl3       1 MOL      -0.2729
     46 C23        12.8573   -9.4474   23.0245 C.ar        1 MOL      -0.0633
     47 C22        13.8867   -9.3912   22.0699 C.ar        1 MOL      -0.0584
     48 H1         27.0115  -18.0258   20.8721 H           1 MOL       0.0578
     49 H2         25.7246  -16.8242   21.0058 H           1 MOL       0.0578
     50 H3         25.4249  -18.3706   20.1670 H           1 MOL       0.0578
     51 H4         21.9851  -16.1786   23.6424 H           1 MOL       0.0610
     52 H5         21.3651  -20.1768   22.4751 H           1 MOL       0.0614
     53 H6         24.3233  -16.4019   23.1981 H           1 MOL       0.0542
     54 H7         19.9761  -15.7079   23.5350 H           1 MOL       0.1706
     55 H8         18.9553  -13.9129   27.7030 H           1 MOL       0.0704
     56 H9         19.5323  -15.5670   27.7206 H           1 MOL       0.0704
     57 H10        20.0159  -12.2658   26.0608 H           1 MOL       0.0584
     58 H11        22.0936  -11.5015   25.1348 H           1 MOL       0.0701
     59 H12        23.7879  -15.3209   25.8161 H           1 MOL       0.0701
     60 H13        21.7190  -16.0633   26.7690 H           1 MOL       0.0584
     61 H14        17.4846  -16.4529   22.3829 H           1 MOL       0.0779
     62 H15        16.8836  -17.4035   24.4318 H           1 MOL       0.0547
     63 H16        16.1680  -15.8230   24.5483 H           1 MOL       0.0547
     64 H17        18.3415  -14.2676   25.3658 H           1 MOL       0.1881
     65 H18        18.6214  -11.9210   22.4331 H           1 MOL       0.0802
     66 H19        20.6222  -12.0340   21.2755 H           1 MOL       0.0313
     67 H20        19.6204  -11.4330   19.9394 H           1 MOL       0.0313
     68 H21        21.0194  -13.7354   19.6456 H           1 MOL       0.0287
     69 H22        19.3535  -13.6376   19.0348 H           1 MOL       0.0287
     70 H23        19.0162  -15.4655   20.4733 H           1 MOL       0.0524
     71 H24        20.3790  -15.0050   21.5306 H           1 MOL       0.0524
     72 H25        17.0894  -10.4751   21.7395 H           1 MOL       0.1878
     73 H26        15.1791  -11.0952   19.5903 H           1 MOL       0.0683
     74 H27        15.7031   -9.5187   20.1632 H           1 MOL       0.0683
     75 H28        14.1707  -12.6816   21.4712 H           1 MOL       0.0557
     76 H29        12.4315  -12.7820   23.0769 H           1 MOL       0.0599
     77 H30         9.9889   -9.7585   25.4844 H           1 MOL       0.3180
     78 H31        11.0482   -8.8319   24.7077 H           1 MOL       0.3180
     79 H32        10.8996  -12.6468   24.3933 H           1 MOL       0.3180
     80 H33         9.9169  -11.7713   25.3201 H           1 MOL       0.3180
     81 H34        12.5368   -8.5587   23.4133 H           1 MOL       0.0599
     82 H35        14.2713   -8.4795   21.8067 H           1 MOL       0.0557
@<TRIPOS>BOND
     1     1     3   1
     2     1     7   2
     3     1     8   2
     4    14     1  am
     5    12     2   1
     6     3     9  ar
     7     3    10  ar
     8     5     4   1
     9     6     5   1
    10    11     6  ar
    11    12     6  ar
    12     9    11  ar
    13    10    12  ar
    14    13    15   2
    15    25    13   1
    16    13    30  am
    17    25    14   1
    18    16    17   1
    19    29    16   1
    20    17    18  ar
    21    17    22  ar
    22    18    19  ar
    23    19    20  ar
    24    21    20  ar
    25    20    23   1
    26    22    21  ar
    27    23    24   3
    28    26    25   1
    29    27    26   1
    30    27    28   2
    31    27    29  am
    32    30    31   1
    33    30    36   1
    34    31    32   1
    35    31    34   1
    36    32    33   2
    37    32    37  am
    38    34    35   1
    39    35    36   1
    40    37    38   1
    41    38    39   1
    42    39    40  ar
    43    39    47  ar
    44    40    41  ar
    45    41    42  ar
    46    42    43   1
    47    42    46  ar
    48    43    44  ar
    49    43    45  ar
    50    46    47  ar
    51     4    48   1
    52     4    49   1
    53     4    50   1
    54     9    51   1
    55    10    52   1
    56    11    53   1
    57    14    54   1
    58    16    55   1
    59    16    56   1
    60    18    57   1
    61    19    58   1
    62    21    59   1
    63    22    60   1
    64    25    61   1
    65    26    62   1
    66    26    63   1
    67    29    64   1
    68    31    65   1
    69    34    66   1
    70    34    67   1
    71    35    68   1
    72    35    69   1
    73    36    70   1
    74    36    71   1
    75    37    72   1
    76    38    73   1
    77    38    74   1
    78    40    75   1
    79    41    76   1
    80    44    77   1
    81    44    78   1
    82    45    79   1
    83    45    80   1
    84    46    81   1
    85    47    82   1
@<TRIPOS>SUBSTRUCTURE
     1  MOL      2

