@<TRIPOS>MOLECULE
3utu_ligand_059
    82    85
SMALL
GAST_HUCK
****
This file was generated by PARSER (from files_GN.cpp)

@<TRIPOS>ATOM
      1 S8         17.5284  -17.1751   21.9806 S.o2        1 MOL       0.0657
      2 CL         17.5649  -21.8307   24.7405 Cl          1 MOL      -0.0788
      3 C35        16.7545  -18.2769   23.0924 C.ar        1 MOL       0.0977
      4 C10        15.3085  -20.4103   27.3427 C.3         1 MOL       0.0596
      5 O9         15.0326  -20.7991   25.9854 O.3         1 MOL      -0.3203
      6 C5         15.6147  -19.9814   25.0517 C.ar        1 MOL       0.1052
      7 O1         18.2735  -17.9587   20.8137 O.2         1 MOL      -0.1516
      8 O10        16.4112  -16.2872   21.2810 O.2         1 MOL      -0.1516
      9 C7         15.5689  -17.9035   23.7630 C.ar        1 MOL      -0.0438
     10 C3         17.3503  -19.5202   23.3924 C.ar        1 MOL      -0.0300
     11 C6         14.9970  -18.7594   24.7200 C.ar        1 MOL      -0.0306
     12 C4         16.7935  -20.3677   24.3736 C.ar        1 MOL       0.0696
     13 C13        19.6215  -14.4169   21.4939 C.2         1 MOL       0.2048
     14 N11        18.6457  -16.1866   22.7722 N.am        1 MOL      -0.2244
     15 O14        20.6626  -15.0578   21.4268 O.2         1 MOL      -0.3945
     16 C15        16.8336  -15.5866   26.4135 C.3         1 MOL       0.0687
     17 C31        17.6864  -16.5973   27.1007 C.ar        1 MOL      -0.0116
     18 C32        17.9386  -16.5261   28.4888 C.ar        1 MOL      -0.0467
     19 C33        18.7174  -17.5096   29.1336 C.ar        1 MOL      -0.0334
     20 C44        19.2770  -18.5699   28.3905 C.ar        1 MOL       0.0883
     21 C8         19.0348  -18.6473   27.0032 C.ar        1 MOL      -0.0334
     22 C9         18.2445  -17.6722   26.3706 C.ar        1 MOL      -0.0467
     23 C40        20.0119  -19.4754   28.9726 C.1         1 MOL       0.0934
     24 N63        20.6626  -20.2744   29.4775 N.1         1 MOL      -0.3338
     25 C45        18.7360  -14.7587   22.6191 C.3         1 MOL       0.1430
     26 C12        19.2833  -14.1115   23.9341 C.3         1 MOL       0.0742
     27 C46        18.5737  -14.3550   25.1843 C.2         1 MOL       0.1821
     28 O22        19.0851  -13.9321   26.2120 O.2         1 MOL      -0.3967
     29 N14        17.4492  -15.0611   25.2364 N.am        1 MOL      -0.2739
     30 N15        19.4430  -13.3994   20.6227 N.am        1 MOL      -0.2500
     31 C16        18.3333  -12.4741   20.6105 C.3         1 MOL       0.1338
     32 C17        17.0946  -13.0128   20.0479 C.2         1 MOL       0.2037
     33 O18        17.0968  -14.0949   19.4683 O.2         1 MOL      -0.3944
     34 C34        18.8565  -11.2723   19.7814 C.3         1 MOL      -0.0104
     35 C1         19.8643  -11.9031   18.8162 C.3         1 MOL      -0.0281
     36 C2         20.4402  -13.0665   19.6383 C.3         1 MOL       0.0369
     37 N19        15.9968  -12.2713   20.1164 N.am        1 MOL      -0.2737
     38 C20        14.6949  -12.5963   19.6204 C.3         1 MOL       0.0645
     39 C21        13.6855  -12.2324   20.6457 C.ar        1 MOL      -0.0210
     40 C26        13.5881  -12.9787   21.8392 C.ar        1 MOL      -0.0584
     41 C25        12.6540  -12.6286   22.8308 C.ar        1 MOL      -0.0633
     42 C24        11.8038  -11.5028   22.6825 C.ar        1 MOL       0.0188
     43 C27        10.8842  -11.1472   23.6849 C.cat       1 MOL       0.2318
     44 N29        10.3777  -12.0122   24.4681 N.pl3       1 MOL      -0.2729
     45 N28        10.5053   -9.9439   23.8752 N.pl3       1 MOL      -0.2729
     46 C23        11.9151  -10.7559   21.4830 C.ar        1 MOL      -0.0633
     47 C22        12.8308  -11.1193   20.4767 C.ar        1 MOL      -0.0584
     48 H1         14.8284  -21.1269   28.0099 H           1 MOL       0.0578
     49 H2         14.9033  -19.4191   27.5609 H           1 MOL       0.0578
     50 H3         16.3814  -20.4203   27.5484 H           1 MOL       0.0578
     51 H4         15.1284  -17.0000   23.5756 H           1 MOL       0.0610
     52 H5         18.2124  -19.8036   22.9186 H           1 MOL       0.0614
     53 H6         14.1339  -18.4805   25.1932 H           1 MOL       0.0542
     54 H7         19.4005  -16.6323   23.1904 H           1 MOL       0.1706
     55 H8         16.5502  -14.7669   27.0764 H           1 MOL       0.0704
     56 H9         15.9147  -16.0862   26.1048 H           1 MOL       0.0704
     57 H10        17.5555  -15.7583   29.0460 H           1 MOL       0.0584
     58 H11        18.8712  -17.4352   30.1438 H           1 MOL       0.0701
     59 H12        19.4298  -19.4060   26.4394 H           1 MOL       0.0701
     60 H13        18.1034  -17.7353   25.3627 H           1 MOL       0.0584
     61 H14        17.7325  -14.3585   22.4626 H           1 MOL       0.0779
     62 H15        19.3226  -13.0259   23.7928 H           1 MOL       0.0547
     63 H16        20.3112  -14.4624   24.0834 H           1 MOL       0.0547
     64 H17        17.0462  -15.3218   24.3943 H           1 MOL       0.1881
     65 H18        18.1349  -12.1167   21.6282 H           1 MOL       0.0802
     66 H19        19.3741  -10.5606   20.4335 H           1 MOL       0.0313
     67 H20        18.0718  -10.7367   19.2397 H           1 MOL       0.0313
     68 H21        20.6387  -11.1957   18.5070 H           1 MOL       0.0287
     69 H22        19.3453  -12.2823   17.9306 H           1 MOL       0.0287
     70 H23        20.6613  -13.9161   18.9861 H           1 MOL       0.0524
     71 H24        21.3628  -12.7495   20.1358 H           1 MOL       0.0524
     72 H25        16.0900  -11.3939   20.5270 H           1 MOL       0.1878
     73 H26        14.5924  -13.6570   19.3736 H           1 MOL       0.0683
     74 H27        14.5442  -12.0299   18.6982 H           1 MOL       0.0683
     75 H28        14.1999  -13.7843   21.9953 H           1 MOL       0.0557
     76 H29        12.6198  -13.1995   23.6779 H           1 MOL       0.0599
     77 H30         9.7556  -11.7552   25.1201 H           1 MOL       0.3180
     78 H31        10.5886  -12.9196   24.3821 H           1 MOL       0.3180
     79 H32        10.8407   -9.2443   23.3540 H           1 MOL       0.3180
     80 H33         9.8961   -9.7505   24.5616 H           1 MOL       0.3180
     81 H34        11.3111   -9.9463   21.3139 H           1 MOL       0.0599
     82 H35        12.8753  -10.5581   19.6224 H           1 MOL       0.0557
@<TRIPOS>BOND
     1     1     3   1
     2     1     7   2
     3     1     8   2
     4    14     1  am
     5    12     2   1
     6     3     9  ar
     7     3    10  ar
     8     5     4   1
     9     6     5   1
    10    11     6  ar
    11    12     6  ar
    12     9    11  ar
    13    10    12  ar
    14    13    15   2
    15    25    13   1
    16    13    30  am
    17    25    14   1
    18    16    17   1
    19    29    16   1
    20    17    18  ar
    21    17    22  ar
    22    18    19  ar
    23    19    20  ar
    24    21    20  ar
    25    20    23   1
    26    22    21  ar
    27    23    24   3
    28    26    25   1
    29    27    26   1
    30    27    28   2
    31    27    29  am
    32    30    31   1
    33    30    36   1
    34    31    32   1
    35    31    34   1
    36    32    33   2
    37    32    37  am
    38    34    35   1
    39    35    36   1
    40    37    38   1
    41    38    39   1
    42    39    40  ar
    43    39    47  ar
    44    40    41  ar
    45    41    42  ar
    46    42    43   1
    47    42    46  ar
    48    43    44  ar
    49    43    45  ar
    50    46    47  ar
    51     4    48   1
    52     4    49   1
    53     4    50   1
    54     9    51   1
    55    10    52   1
    56    11    53   1
    57    14    54   1
    58    16    55   1
    59    16    56   1
    60    18    57   1
    61    19    58   1
    62    21    59   1
    63    22    60   1
    64    25    61   1
    65    26    62   1
    66    26    63   1
    67    29    64   1
    68    31    65   1
    69    34    66   1
    70    34    67   1
    71    35    68   1
    72    35    69   1
    73    36    70   1
    74    36    71   1
    75    37    72   1
    76    38    73   1
    77    38    74   1
    78    40    75   1
    79    41    76   1
    80    44    77   1
    81    44    78   1
    82    45    79   1
    83    45    80   1
    84    46    81   1
    85    47    82   1
@<TRIPOS>SUBSTRUCTURE
     1  MOL      2

