@<TRIPOS>MOLECULE
3utu_ligand_039
    82    85
SMALL
GAST_HUCK
****
This file was generated by PARSER (from files_GN.cpp)

@<TRIPOS>ATOM
      1 S8         20.2454  -13.2907   26.0031 S.o2        1 MOL       0.0657
      2 CL         22.8771  -17.9788   26.1046 Cl          1 MOL      -0.0788
      3 C35        21.7449  -14.1651   25.7898 C.ar        1 MOL       0.0977
      4 C10        26.0417  -16.7408   26.2109 C.3         1 MOL       0.0596
      5 O9         25.2532  -16.3957   25.0573 O.3         1 MOL      -0.3203
      6 C5         24.1174  -15.6773   25.3588 C.ar        1 MOL       0.1052
      7 O1         19.2777  -13.9782   27.0637 O.2         1 MOL      -0.1516
      8 O10        20.5898  -11.9277   26.7468 O.2         1 MOL      -0.1516
      9 C7         22.9104  -13.5399   25.2903 C.ar        1 MOL      -0.0438
     10 C3         21.7945  -15.5396   26.0938 C.ar        1 MOL      -0.0300
     11 C6         24.0888  -14.2877   25.0874 C.ar        1 MOL      -0.0306
     12 C4         22.9449  -16.3037   25.8414 C.ar        1 MOL       0.0696
     13 C13        18.1602  -12.8577   22.6270 C.2         1 MOL       0.2048
     14 N11        19.3754  -12.8120   24.6336 N.am        1 MOL      -0.2244
     15 O14        17.0856  -12.2715   22.7391 O.2         1 MOL      -0.3945
     16 C15        16.5160  -17.7346   25.9483 C.3         1 MOL       0.0687
     17 C31        17.0228  -18.8428   25.0852 C.ar        1 MOL      -0.0116
     18 C32        18.2530  -19.4866   25.3739 C.ar        1 MOL      -0.0467
     19 C33        18.7762  -20.4711   24.5131 C.ar        1 MOL      -0.0334
     20 C44        18.0754  -20.8372   23.3447 C.ar        1 MOL       0.0883
     21 C8         16.8446  -20.2110   23.0537 C.ar        1 MOL      -0.0334
     22 C9         16.3225  -19.2301   23.9183 C.ar        1 MOL      -0.0467
     23 C40        18.5758  -21.7220   22.5359 C.1         1 MOL       0.0934
     24 N63        19.0315  -22.4944   21.8099 N.1         1 MOL      -0.3338
     25 C45        18.5987  -13.6659   23.7750 C.3         1 MOL       0.1430
     26 C12        17.3677  -14.3742   24.4557 C.3         1 MOL       0.0742
     27 C46        17.5749  -15.6718   25.0766 C.2         1 MOL       0.1821
     28 O22        18.7092  -16.1019   25.2524 O.2         1 MOL      -0.3967
     29 N14        16.5143  -16.4409   25.3220 N.am        1 MOL      -0.2739
     30 N15        18.8360  -12.7255   21.4731 N.am        1 MOL      -0.2500
     31 C16        18.3043  -12.0769   20.2930 C.3         1 MOL       0.1338
     32 C17        17.0261  -12.6319   19.8332 C.2         1 MOL       0.2037
     33 O18        16.9840  -13.8155   19.5172 O.2         1 MOL      -0.3944
     34 C34        19.4149  -12.2215   19.2206 C.3         1 MOL      -0.0104
     35 C1         20.6931  -12.3917   20.0442 C.3         1 MOL      -0.0281
     36 C2         20.2011  -13.1355   21.2949 C.3         1 MOL       0.0369
     37 N19        15.9284  -11.8792   19.8248 N.am        1 MOL      -0.2737
     38 C20        14.6046  -12.2765   19.4479 C.3         1 MOL       0.0645
     39 C21        13.6404  -11.9414   20.5283 C.ar        1 MOL      -0.0210
     40 C26        13.5923  -12.7229   21.7035 C.ar        1 MOL      -0.0584
     41 C25        12.6632  -12.4366   22.7212 C.ar        1 MOL      -0.0633
     42 C24        11.7649  -11.3433   22.6179 C.ar        1 MOL       0.0188
     43 C27        10.8483  -11.0527   23.6371 C.cat       1 MOL       0.2318
     44 N29        10.2653  -11.9693   24.3177 N.pl3       1 MOL      -0.2729
     45 N28        10.5247   -9.8576   23.9584 N.pl3       1 MOL      -0.2729
     46 C23        11.8275  -10.5605   21.4363 C.ar        1 MOL      -0.0633
     47 C22        12.7419  -10.8584   20.4081 C.ar        1 MOL      -0.0584
     48 H1         26.9454  -17.2317   25.8540 H           1 MOL       0.0578
     49 H2         25.5132  -17.4408   26.8634 H           1 MOL       0.0578
     50 H3         26.3344  -15.8568   26.7872 H           1 MOL       0.0578
     51 H4         22.9180  -12.5380   25.0804 H           1 MOL       0.0610
     52 H5         20.9838  -16.0005   26.5021 H           1 MOL       0.0614
     53 H6         24.9286  -13.8263   24.7285 H           1 MOL       0.0542
     54 H7         19.5875  -11.9254   24.2968 H           1 MOL       0.1706
     55 H8         17.1087  -17.6627   26.8627 H           1 MOL       0.0704
     56 H9         15.4919  -17.9638   26.2493 H           1 MOL       0.0704
     57 H10        18.7914  -19.2250   26.2040 H           1 MOL       0.0584
     58 H11        19.6780  -20.8998   24.7435 H           1 MOL       0.0701
     59 H12        16.3236  -20.4516   22.2034 H           1 MOL       0.0701
     60 H13        15.4366  -18.7737   23.6780 H           1 MOL       0.0584
     61 H14        19.2579  -14.4540   23.4102 H           1 MOL       0.0779
     62 H15        16.5937  -14.5325   23.6865 H           1 MOL       0.0547
     63 H16        16.9536  -13.7008   25.2210 H           1 MOL       0.0547
     64 H17        15.6427  -16.0749   25.0666 H           1 MOL       0.1881
     65 H18        18.1920  -11.0074   20.5239 H           1 MOL       0.0802
     66 H19        19.4672  -11.3486   18.5667 H           1 MOL       0.0313
     67 H20        19.2734  -13.1143   18.6042 H           1 MOL       0.0313
     68 H21        21.0928  -11.4117   20.3234 H           1 MOL       0.0287
     69 H22        21.4591  -12.9568   19.5097 H           1 MOL       0.0287
     70 H23        20.2523  -14.2224   21.1435 H           1 MOL       0.0524
     71 H24        20.8329  -12.8615   22.1508 H           1 MOL       0.0524
     72 H25        16.0326  -10.9539   20.1014 H           1 MOL       0.1878
     73 H26        14.5276  -13.3450   19.2254 H           1 MOL       0.0683
     74 H27        14.3604  -11.7438   18.5268 H           1 MOL       0.0683
     75 H28        14.2269  -13.5161   21.8236 H           1 MOL       0.0557
     76 H29        12.6632  -13.0339   23.5510 H           1 MOL       0.0599
     77 H30         9.6412  -11.7366   24.9723 H           1 MOL       0.3180
     78 H31        10.4275  -12.8714   24.1399 H           1 MOL       0.3180
     79 H32        10.9047   -9.1248   23.5197 H           1 MOL       0.3180
     80 H33         9.9093   -9.7099   24.6473 H           1 MOL       0.3180
     81 H34        11.1863   -9.7743   21.2967 H           1 MOL       0.0599
     82 H35        12.7452  -10.2748   19.5678 H           1 MOL       0.0557
@<TRIPOS>BOND
     1     1     3   1
     2     1     7   2
     3     1     8   2
     4    14     1  am
     5    12     2   1
     6     3     9  ar
     7     3    10  ar
     8     5     4   1
     9     6     5   1
    10    11     6  ar
    11    12     6  ar
    12     9    11  ar
    13    10    12  ar
    14    13    15   2
    15    25    13   1
    16    13    30  am
    17    25    14   1
    18    16    17   1
    19    29    16   1
    20    17    18  ar
    21    17    22  ar
    22    18    19  ar
    23    19    20  ar
    24    21    20  ar
    25    20    23   1
    26    22    21  ar
    27    23    24   3
    28    26    25   1
    29    27    26   1
    30    27    28   2
    31    27    29  am
    32    30    31   1
    33    30    36   1
    34    31    32   1
    35    31    34   1
    36    32    33   2
    37    32    37  am
    38    34    35   1
    39    35    36   1
    40    37    38   1
    41    38    39   1
    42    39    40  ar
    43    39    47  ar
    44    40    41  ar
    45    41    42  ar
    46    42    43   1
    47    42    46  ar
    48    43    44  ar
    49    43    45  ar
    50    46    47  ar
    51     4    48   1
    52     4    49   1
    53     4    50   1
    54     9    51   1
    55    10    52   1
    56    11    53   1
    57    14    54   1
    58    16    55   1
    59    16    56   1
    60    18    57   1
    61    19    58   1
    62    21    59   1
    63    22    60   1
    64    25    61   1
    65    26    62   1
    66    26    63   1
    67    29    64   1
    68    31    65   1
    69    34    66   1
    70    34    67   1
    71    35    68   1
    72    35    69   1
    73    36    70   1
    74    36    71   1
    75    37    72   1
    76    38    73   1
    77    38    74   1
    78    40    75   1
    79    41    76   1
    80    44    77   1
    81    44    78   1
    82    45    79   1
    83    45    80   1
    84    46    81   1
    85    47    82   1
@<TRIPOS>SUBSTRUCTURE
     1  MOL      2

