@<TRIPOS>MOLECULE
3utu_ligand_072
    82    85
SMALL
GAST_HUCK
****
This file was generated by PARSER (from files_GN.cpp)

@<TRIPOS>ATOM
      1 S8         15.5129  -16.4558   17.9794 S.o2        1 MOL       0.0657
      2 CL         19.2637  -19.9939   16.3544 Cl          1 MOL      -0.0788
      3 C35        16.7137  -16.9502   16.8215 C.ar        1 MOL       0.0977
      4 C10        19.2179  -18.8286   12.9234 C.3         1 MOL       0.0596
      5 O9         19.6716  -18.0751   14.0604 O.3         1 MOL      -0.3203
      6 C5         18.6773  -17.7532   14.9439 C.ar        1 MOL       0.1052
      7 O1         15.2049  -14.8968   17.8826 O.2         1 MOL      -0.1516
      8 O10        14.1371  -17.1691   17.6161 O.2         1 MOL      -0.1516
      9 C7         16.9866  -16.1523   15.6910 C.ar        1 MOL      -0.0438
     10 C3         17.4198  -18.1593   17.0005 C.ar        1 MOL      -0.0300
     11 C6         17.9668  -16.5474   14.7630 C.ar        1 MOL      -0.0306
     12 C4         18.4063  -18.5594   16.0724 C.ar        1 MOL       0.0696
     13 C13        17.8023  -15.9285   20.5352 C.2         1 MOL       0.2048
     14 N11        15.8652  -16.9219   19.5601 N.am        1 MOL      -0.2244
     15 O14        18.4148  -16.9409   20.2117 O.2         1 MOL      -0.3945
     16 C15        12.4008  -17.9390   21.2022 C.3         1 MOL       0.0687
     17 C31        12.5370  -19.4128   21.3762 C.ar        1 MOL      -0.0116
     18 C32        12.2476  -20.0266   22.6171 C.ar        1 MOL      -0.0467
     19 C33        12.4784  -21.4023   22.8137 C.ar        1 MOL      -0.0334
     20 C44        13.0057  -22.1915   21.7687 C.ar        1 MOL       0.0883
     21 C8         13.2654  -21.5946   20.5147 C.ar        1 MOL      -0.0334
     22 C9         13.0385  -20.2167   20.3255 C.ar        1 MOL      -0.0467
     23 C40        13.2574  -23.4513   21.9644 C.1         1 MOL       0.0934
     24 N63        13.4845  -24.5630   22.1422 N.1         1 MOL      -0.3338
     25 C45        16.3312  -16.0449   20.5961 C.3         1 MOL       0.1430
     26 C12        15.8378  -16.5074   22.0188 C.3         1 MOL       0.0742
     27 C46        14.7106  -17.4331   22.0445 C.2         1 MOL       0.1821
     28 O22        14.8491  -18.4978   22.6375 O.2         1 MOL      -0.3967
     29 N14        13.5846  -17.1405   21.3877 N.am        1 MOL      -0.2739
     30 N15        18.5206  -14.8584   20.9211 N.am        1 MOL      -0.2500
     31 C16        17.9858  -13.6694   21.5449 C.3         1 MOL       0.1338
     32 C17        17.2526  -12.7705   20.6554 C.2         1 MOL       0.2037
     33 O18        17.0821  -13.0682   19.4772 O.2         1 MOL      -0.3944
     34 C34        19.2217  -13.0054   22.2051 C.3         1 MOL      -0.0104
     35 C1         20.3890  -13.4335   21.3139 C.3         1 MOL      -0.0281
     36 C2         19.9623  -14.8387   20.8637 C.3         1 MOL       0.0369
     37 N19        16.6974  -11.6856   21.1845 N.am        1 MOL      -0.2737
     38 C20        15.7111  -10.8343   20.5921 C.3         1 MOL       0.0645
     39 C21        14.5298  -10.7663   21.4956 C.ar        1 MOL      -0.0210
     40 C26        13.9053  -11.9544   21.9348 C.ar        1 MOL      -0.0584
     41 C25        12.8197  -11.9164   22.8265 C.ar        1 MOL      -0.0633
     42 C24        12.2862  -10.6897   23.3040 C.ar        1 MOL       0.0188
     43 C27        11.1813  -10.6596   24.1822 C.cat       1 MOL       0.2318
     44 N29        10.5906  -11.7117   24.6075 N.pl3       1 MOL      -0.2729
     45 N28        10.6702   -9.5740   24.6227 N.pl3       1 MOL      -0.2729
     46 C23        12.9203   -9.5004   22.8481 C.ar        1 MOL      -0.0633
     47 C22        14.0175   -9.5366   21.9647 C.ar        1 MOL      -0.0584
     48 H1         20.0762  -19.0126   12.2763 H           1 MOL       0.0578
     49 H2         18.4698  -18.2776   12.3478 H           1 MOL       0.0578
     50 H3         18.8064  -19.7944   13.2263 H           1 MOL       0.0578
     51 H4         16.4804  -15.2760   15.5394 H           1 MOL       0.0610
     52 H5         17.2313  -18.7477   17.8158 H           1 MOL       0.0614
     53 H6         18.1680  -15.9521   13.9568 H           1 MOL       0.0542
     54 H7         15.9322  -17.8761   19.7206 H           1 MOL       0.1706
     55 H8         11.6352  -17.5400   21.8709 H           1 MOL       0.0704
     56 H9         12.0402  -17.7538   20.1860 H           1 MOL       0.0704
     57 H10        11.8843  -19.4710   23.3954 H           1 MOL       0.0584
     58 H11        12.2734  -21.8111   23.7290 H           1 MOL       0.0701
     59 H12        13.6279  -22.1486   19.7342 H           1 MOL       0.0701
     60 H13        13.2536  -19.7986   19.4155 H           1 MOL       0.0584
     61 H14        15.8694  -15.0652   20.4028 H           1 MOL       0.0779
     62 H15        15.5392  -15.6251   22.5935 H           1 MOL       0.0547
     63 H16        16.6716  -16.9664   22.5653 H           1 MOL       0.0547
     64 H17        13.5481  -16.2693   20.9593 H           1 MOL       0.1881
     65 H18        17.3124  -13.9676   22.3574 H           1 MOL       0.0802
     66 H19        19.3749  -13.4122   23.2095 H           1 MOL       0.0313
     67 H20        19.1542  -11.9180   22.2831 H           1 MOL       0.0313
     68 H21        21.3427  -13.4403   21.8490 H           1 MOL       0.0287
     69 H22        20.4734  -12.7701   20.4479 H           1 MOL       0.0287
     70 H23        20.3324  -15.0332   19.8546 H           1 MOL       0.0524
     71 H24        20.3753  -15.5927   21.5406 H           1 MOL       0.0524
     72 H25        16.9008  -11.5105   22.1171 H           1 MOL       0.1878
     73 H26        15.3804  -11.1858   19.6096 H           1 MOL       0.0683
     74 H27        16.1612   -9.8485   20.4572 H           1 MOL       0.0683
     75 H28        14.2519  -12.8638   21.6166 H           1 MOL       0.0557
     76 H29        12.4235  -12.8131   23.1187 H           1 MOL       0.0599
     77 H30         9.8532  -11.6276   25.1761 H           1 MOL       0.3180
     78 H31        10.8664  -12.5684   24.3551 H           1 MOL       0.3180
     79 H32        11.0092   -8.7409   24.3741 H           1 MOL       0.3180
     80 H33         9.9309   -9.6074   25.1943 H           1 MOL       0.3180
     81 H34        12.5963   -8.5794   23.1560 H           1 MOL       0.0599
     82 H35        14.4406   -8.6516   21.6682 H           1 MOL       0.0557
@<TRIPOS>BOND
     1     1     3   1
     2     1     7   2
     3     1     8   2
     4    14     1  am
     5    12     2   1
     6     3     9  ar
     7     3    10  ar
     8     5     4   1
     9     6     5   1
    10    11     6  ar
    11    12     6  ar
    12     9    11  ar
    13    10    12  ar
    14    13    15   2
    15    25    13   1
    16    13    30  am
    17    25    14   1
    18    16    17   1
    19    29    16   1
    20    17    18  ar
    21    17    22  ar
    22    18    19  ar
    23    19    20  ar
    24    21    20  ar
    25    20    23   1
    26    22    21  ar
    27    23    24   3
    28    26    25   1
    29    27    26   1
    30    27    28   2
    31    27    29  am
    32    30    31   1
    33    30    36   1
    34    31    32   1
    35    31    34   1
    36    32    33   2
    37    32    37  am
    38    34    35   1
    39    35    36   1
    40    37    38   1
    41    38    39   1
    42    39    40  ar
    43    39    47  ar
    44    40    41  ar
    45    41    42  ar
    46    42    43   1
    47    42    46  ar
    48    43    44  ar
    49    43    45  ar
    50    46    47  ar
    51     4    48   1
    52     4    49   1
    53     4    50   1
    54     9    51   1
    55    10    52   1
    56    11    53   1
    57    14    54   1
    58    16    55   1
    59    16    56   1
    60    18    57   1
    61    19    58   1
    62    21    59   1
    63    22    60   1
    64    25    61   1
    65    26    62   1
    66    26    63   1
    67    29    64   1
    68    31    65   1
    69    34    66   1
    70    34    67   1
    71    35    68   1
    72    35    69   1
    73    36    70   1
    74    36    71   1
    75    37    72   1
    76    38    73   1
    77    38    74   1
    78    40    75   1
    79    41    76   1
    80    44    77   1
    81    44    78   1
    82    45    79   1
    83    45    80   1
    84    46    81   1
    85    47    82   1
@<TRIPOS>SUBSTRUCTURE
     1  MOL      2

