@<TRIPOS>MOLECULE
3utu_ligand_005
    82    85
SMALL
GAST_HUCK
****
This file was generated by PARSER (from files_GN.cpp)

@<TRIPOS>ATOM
      1 S8         19.9272  -15.0025   25.2301 S.o2        1 MOL       0.0657
      2 CL         21.5033  -19.4567   27.8361 Cl          1 MOL      -0.0788
      3 C35        19.7324  -16.1294   26.5365 C.ar        1 MOL       0.0977
      4 C10        19.3028  -18.3633   30.9627 C.3         1 MOL       0.0596
      5 O9         19.1677  -18.9026   29.6352 O.3         1 MOL      -0.3203
      6 C5         19.3590  -17.9977   28.6235 C.ar        1 MOL       0.1052
      7 O1         19.1852  -13.6179   25.4814 O.2         1 MOL      -0.1516
      8 O10        21.4598  -14.6127   25.0770 O.2         1 MOL      -0.1516
      9 C7         18.6537  -15.9847   27.4282 C.ar        1 MOL      -0.0438
     10 C3         20.5967  -17.2355   26.6583 C.ar        1 MOL      -0.0300
     11 C6         18.4605  -16.9270   28.4463 C.ar        1 MOL      -0.0306
     12 C4         20.4199  -18.1631   27.7048 C.ar        1 MOL       0.0696
     13 C13        18.0420  -14.0941   22.6755 C.2         1 MOL       0.2048
     14 N11        19.4577  -15.6578   23.7498 N.am        1 MOL      -0.2244
     15 O14        17.2262  -13.3760   23.2506 O.2         1 MOL      -0.3945
     16 C15        16.2107  -19.1307   26.0223 C.3         1 MOL       0.0687
     17 C31        14.9197  -19.3445   26.7258 C.ar        1 MOL      -0.0116
     18 C32        13.7086  -19.3302   25.9932 C.ar        1 MOL      -0.0467
     19 C33        12.4741  -19.5618   26.6270 C.ar        1 MOL      -0.0334
     20 C44        12.4262  -19.8125   28.0146 C.ar        1 MOL       0.0883
     21 C8         13.6273  -19.8234   28.7560 C.ar        1 MOL      -0.0334
     22 C9         14.8613  -19.5949   28.1173 C.ar        1 MOL      -0.0467
     23 C40        11.2850  -20.0329   28.6018 C.1         1 MOL       0.0934
     24 N63        10.2805  -20.2278   29.1212 N.1         1 MOL      -0.3338
     25 C45        18.1717  -15.4845   23.1458 C.3         1 MOL       0.1430
     26 C12        17.0014  -16.0252   24.0413 C.3         1 MOL       0.0742
     27 C46        17.0891  -17.4036   24.5091 C.2         1 MOL       0.1821
     28 O22        17.8497  -18.1974   23.9658 O.2         1 MOL      -0.3967
     29 N14        16.2931  -17.8015   25.4928 N.am        1 MOL      -0.2739
     30 N15        18.7715  -13.5622   21.6757 N.am        1 MOL      -0.2500
     31 C16        18.6727  -12.1821   21.2652 C.3         1 MOL       0.1338
     32 C17        17.4120  -11.9078   20.5801 C.2         1 MOL       0.2037
     33 O18        17.0935  -12.5886   19.6106 O.2         1 MOL      -0.3944
     34 C34        19.8956  -11.9410   20.3513 C.3         1 MOL      -0.0104
     35 C1         20.1902  -13.3281   19.7797 C.3         1 MOL      -0.0281
     36 C2         19.7581  -14.2756   20.9093 C.3         1 MOL       0.0369
     37 N19        16.6302  -10.9308   21.0109 N.am        1 MOL      -0.2737
     38 C20        15.4078  -10.4745   20.4326 C.3         1 MOL       0.0645
     39 C21        14.3390  -10.5293   21.4576 C.ar        1 MOL      -0.0210
     40 C26        13.8623   -9.3543   22.0761 C.ar        1 MOL      -0.0584
     41 C25        12.8420   -9.4187   23.0399 C.ar        1 MOL      -0.0633
     42 C24        12.2467  -10.6523   23.4208 C.ar        1 MOL       0.0188
     43 C27        11.1903  -10.7084   24.3538 C.cat       1 MOL       0.2318
     44 N29        10.7035   -9.6666   24.9132 N.pl3       1 MOL      -0.2729
     45 N28        10.6160  -11.7950   24.7089 N.pl3       1 MOL      -0.2729
     46 C23        12.7599  -11.8262   22.8040 C.ar        1 MOL      -0.0633
     47 C22        13.7860  -11.7680   21.8440 C.ar        1 MOL      -0.0584
     48 H1         19.1203  -19.1665   31.6781 H           1 MOL       0.0578
     49 H2         18.5680  -17.5805   31.1550 H           1 MOL       0.0578
     50 H3         20.3068  -17.9625   31.1216 H           1 MOL       0.0578
     51 H4         17.9923  -15.2100   27.3471 H           1 MOL       0.0610
     52 H5         21.3601  -17.3572   25.9877 H           1 MOL       0.0614
     53 H6         17.6732  -16.8101   29.0789 H           1 MOL       0.0542
     54 H7         20.1519  -16.0590   23.2057 H           1 MOL       0.1706
     55 H8         16.2728  -19.8737   25.2214 H           1 MOL       0.0704
     56 H9         17.0662  -19.2856   26.6830 H           1 MOL       0.0704
     57 H10        13.7223  -19.1566   24.9847 H           1 MOL       0.0584
     58 H11        11.6176  -19.5504   26.0639 H           1 MOL       0.0701
     59 H12        13.6179  -20.0079   29.7636 H           1 MOL       0.0701
     60 H13        15.7165  -19.6077   28.6792 H           1 MOL       0.0584
     61 H14        18.1538  -16.1279   22.2610 H           1 MOL       0.0779
     62 H15        16.0655  -15.9283   23.4829 H           1 MOL       0.0547
     63 H16        16.9063  -15.3858   24.9181 H           1 MOL       0.0547
     64 H17        15.7042  -17.1326   25.8778 H           1 MOL       0.1881
     65 H18        18.7811  -11.5331   22.1434 H           1 MOL       0.0802
     66 H19        20.7492  -11.6054   20.9449 H           1 MOL       0.0313
     67 H20        19.7111  -11.2056   19.5634 H           1 MOL       0.0313
     68 H21        21.2413  -13.4471   19.5151 H           1 MOL       0.0287
     69 H22        19.5770  -13.4953   18.8924 H           1 MOL       0.0287
     70 H23        19.3540  -15.1934   20.4781 H           1 MOL       0.0524
     71 H24        20.6175  -14.5169   21.5368 H           1 MOL       0.0524
     72 H25        16.9474  -10.4150   21.7653 H           1 MOL       0.1878
     73 H26        15.1039  -11.0514   19.5568 H           1 MOL       0.0683
     74 H27        15.5752   -9.4496   20.0925 H           1 MOL       0.0683
     75 H28        14.2583   -8.4429   21.8343 H           1 MOL       0.0557
     76 H29        12.5347   -8.5350   23.4504 H           1 MOL       0.0599
     77 H30         9.9811   -9.7446   25.5012 H           1 MOL       0.3180
     78 H31        11.0301   -8.8153   24.7268 H           1 MOL       0.3180
     79 H32        10.8766  -12.6271   24.3702 H           1 MOL       0.3180
     80 H33         9.9050  -11.7655   25.3142 H           1 MOL       0.3180
     81 H34        12.3816  -12.7491   23.0281 H           1 MOL       0.0599
     82 H35        14.1148  -12.6349   21.4111 H           1 MOL       0.0557
@<TRIPOS>BOND
     1     1     3   1
     2     1     7   2
     3     1     8   2
     4    14     1  am
     5    12     2   1
     6     3     9  ar
     7     3    10  ar
     8     5     4   1
     9     6     5   1
    10    11     6  ar
    11    12     6  ar
    12     9    11  ar
    13    10    12  ar
    14    13    15   2
    15    25    13   1
    16    13    30  am
    17    25    14   1
    18    16    17   1
    19    29    16   1
    20    17    18  ar
    21    17    22  ar
    22    18    19  ar
    23    19    20  ar
    24    21    20  ar
    25    20    23   1
    26    22    21  ar
    27    23    24   3
    28    26    25   1
    29    27    26   1
    30    27    28   2
    31    27    29  am
    32    30    31   1
    33    30    36   1
    34    31    32   1
    35    31    34   1
    36    32    33   2
    37    32    37  am
    38    34    35   1
    39    35    36   1
    40    37    38   1
    41    38    39   1
    42    39    40  ar
    43    39    47  ar
    44    40    41  ar
    45    41    42  ar
    46    42    43   1
    47    42    46  ar
    48    43    44  ar
    49    43    45  ar
    50    46    47  ar
    51     4    48   1
    52     4    49   1
    53     4    50   1
    54     9    51   1
    55    10    52   1
    56    11    53   1
    57    14    54   1
    58    16    55   1
    59    16    56   1
    60    18    57   1
    61    19    58   1
    62    21    59   1
    63    22    60   1
    64    25    61   1
    65    26    62   1
    66    26    63   1
    67    29    64   1
    68    31    65   1
    69    34    66   1
    70    34    67   1
    71    35    68   1
    72    35    69   1
    73    36    70   1
    74    36    71   1
    75    37    72   1
    76    38    73   1
    77    38    74   1
    78    40    75   1
    79    41    76   1
    80    44    77   1
    81    44    78   1
    82    45    79   1
    83    45    80   1
    84    46    81   1
    85    47    82   1
@<TRIPOS>SUBSTRUCTURE
     1  MOL      2

