@<TRIPOS>MOLECULE
3utu_ligand_074
    82    85
SMALL
GAST_HUCK
****
This file was generated by PARSER (from files_GN.cpp)

@<TRIPOS>ATOM
      1 S8         15.8374  -16.4110   22.3135 S.o2        1 MOL       0.0657
      2 CL         17.8768  -20.4750   19.4224 Cl          1 MOL      -0.0788
      3 C35        16.0977  -17.1558   20.7576 C.ar        1 MOL       0.0977
      4 C10        17.9124  -18.7389   16.3509 C.3         1 MOL       0.0596
      5 O9         16.6875  -19.0416   17.0415 O.3         1 MOL      -0.3203
      6 C5         16.5555  -18.4154   18.2558 C.ar        1 MOL       0.1052
      7 O1         15.4090  -14.8920   22.1093 O.2         1 MOL      -0.1516
      8 O10        14.6087  -17.1154   23.0429 O.2         1 MOL      -0.1516
      9 C7         15.5943  -16.5863   19.5675 C.ar        1 MOL      -0.0438
     10 C3         16.8240  -18.3629   20.6855 C.ar        1 MOL      -0.0300
     11 C6         15.8234  -17.2142   18.3273 C.ar        1 MOL      -0.0306
     12 C4         17.0460  -18.9990   19.4480 C.ar        1 MOL       0.0696
     13 C13        17.8716  -14.2183   23.4317 C.2         1 MOL       0.2048
     14 N11        17.2010  -16.5571   23.2984 N.am        1 MOL      -0.2244
     15 O14        17.2093  -13.3240   23.9474 O.2         1 MOL      -0.3945
     16 C15        18.8869  -18.3932   27.6258 C.3         1 MOL       0.0687
     17 C31        17.4766  -18.7615   27.9382 C.ar        1 MOL      -0.0116
     18 C32        17.0851  -18.9421   29.2848 C.ar        1 MOL      -0.0467
     19 C33        15.7747  -19.3253   29.6153 C.ar        1 MOL      -0.0334
     20 C44        14.8227  -19.5514   28.5990 C.ar        1 MOL       0.0883
     21 C8         15.2003  -19.3808   27.2490 C.ar        1 MOL      -0.0334
     22 C9         16.5148  -18.9946   26.9244 C.ar        1 MOL      -0.0467
     23 C40        13.6105  -19.9240   28.8947 C.1         1 MOL       0.0934
     24 N63        12.5411  -20.2575   29.1467 N.1         1 MOL      -0.3338
     25 C45        17.7886  -15.5262   24.1085 C.3         1 MOL       0.1430
     26 C12        19.1683  -16.0072   24.6948 C.3         1 MOL       0.0742
     27 C46        19.0811  -16.4893   26.0683 C.2         1 MOL       0.1821
     28 O22        18.9889  -15.6527   26.9654 O.2         1 MOL      -0.3967
     29 N14        19.0669  -17.7887   26.3385 N.am        1 MOL      -0.2739
     30 N15        18.5412  -13.9397   22.2961 N.am        1 MOL      -0.2500
     31 C16        18.5491  -12.6293   21.6753 C.3         1 MOL       0.1338
     32 C17        17.3014  -12.3074   20.9863 C.2         1 MOL       0.2037
     33 O18        16.8114  -13.1348   20.2205 O.2         1 MOL      -0.3944
     34 C34        19.7398  -12.6727   20.6900 C.3         1 MOL      -0.0104
     35 C1         19.8204  -14.1521   20.3053 C.3         1 MOL      -0.0281
     36 C2         19.3660  -14.8762   21.5837 C.3         1 MOL       0.0369
     37 N19        16.7431  -11.1130   21.1421 N.am        1 MOL      -0.2737
     38 C20        15.5751  -10.6055   20.4945 C.3         1 MOL       0.0645
     39 C21        14.4418  -10.5966   21.4529 C.ar        1 MOL      -0.0210
     40 C26        13.9356   -9.3971   21.9966 C.ar        1 MOL      -0.0584
     41 C25        12.8670   -9.4199   22.9106 C.ar        1 MOL      -0.0633
     42 C24        12.2586  -10.6379   23.3255 C.ar        1 MOL       0.0188
     43 C27        11.1788  -10.6607   24.2324 C.cat       1 MOL       0.2318
     44 N29        10.7106   -9.6032   24.7800 N.pl3       1 MOL      -0.2729
     45 N28        10.5720  -11.7311   24.5798 N.pl3       1 MOL      -0.2729
     46 C23        12.7830  -11.8343   22.7648 C.ar        1 MOL      -0.0633
     47 C22        13.8471  -11.8125   21.8469 C.ar        1 MOL      -0.0584
     48 H1         17.8979  -19.2578   15.3923 H           1 MOL       0.0578
     49 H2         18.7816  -19.0900   16.9115 H           1 MOL       0.0578
     50 H3         18.0096  -17.6682   16.1572 H           1 MOL       0.0578
     51 H4         15.0558  -15.7189   19.5892 H           1 MOL       0.0610
     52 H5         17.1908  -18.7892   21.5399 H           1 MOL       0.0614
     53 H6         15.4416  -16.7979   17.4746 H           1 MOL       0.0542
     54 H7         17.4492  -17.4696   23.5208 H           1 MOL       0.1706
     55 H8         19.4819  -19.3098   27.6510 H           1 MOL       0.0704
     56 H9         19.2924  -17.7343   28.4018 H           1 MOL       0.0704
     57 H10        17.7612  -18.7924   30.0406 H           1 MOL       0.0584
     58 H11        15.5262  -19.4389   30.6037 H           1 MOL       0.0701
     59 H12        14.5275  -19.5361   26.4929 H           1 MOL       0.0701
     60 H13        16.7637  -18.8904   25.9387 H           1 MOL       0.0584
     61 H14        17.0947  -15.4312   24.9536 H           1 MOL       0.0779
     62 H15        19.9080  -15.1972   24.6758 H           1 MOL       0.0547
     63 H16        19.5832  -16.7964   24.0568 H           1 MOL       0.0547
     64 H17        19.1067  -18.3959   25.5812 H           1 MOL       0.1881
     65 H18        18.7744  -11.8663   22.4317 H           1 MOL       0.0802
     66 H19        20.6591  -12.3731   21.2013 H           1 MOL       0.0313
     67 H20        19.6045  -12.0293   19.8155 H           1 MOL       0.0313
     68 H21        20.8267  -14.4371   19.9932 H           1 MOL       0.0287
     69 H22        19.1208  -14.3603   19.4928 H           1 MOL       0.0287
     70 H23        18.8229  -15.7840   21.3148 H           1 MOL       0.0524
     71 H24        20.2410  -15.1406   22.1793 H           1 MOL       0.0524
     72 H25        17.1809  -10.4962   21.7481 H           1 MOL       0.1878
     73 H26        15.2951  -11.1828   19.6083 H           1 MOL       0.0683
     74 H27        15.8113   -9.5949   20.1512 H           1 MOL       0.0683
     75 H28        14.3441   -8.4965   21.7314 H           1 MOL       0.0557
     76 H29        12.5383   -8.5194   23.2643 H           1 MOL       0.0599
     77 H30         9.9817   -9.6628   25.3627 H           1 MOL       0.3180
     78 H31        11.0761   -8.7630   24.6003 H           1 MOL       0.3180
     79 H32        10.8198  -12.5696   24.2449 H           1 MOL       0.3180
     80 H33         9.8533  -11.6819   25.1773 H           1 MOL       0.3180
     81 H34        12.3975  -12.7473   23.0131 H           1 MOL       0.0599
     82 H35        14.1781  -12.6949   21.4507 H           1 MOL       0.0557
@<TRIPOS>BOND
     1     1     3   1
     2     1     7   2
     3     1     8   2
     4    14     1  am
     5    12     2   1
     6     3     9  ar
     7     3    10  ar
     8     5     4   1
     9     6     5   1
    10    11     6  ar
    11    12     6  ar
    12     9    11  ar
    13    10    12  ar
    14    13    15   2
    15    25    13   1
    16    13    30  am
    17    25    14   1
    18    16    17   1
    19    29    16   1
    20    17    18  ar
    21    17    22  ar
    22    18    19  ar
    23    19    20  ar
    24    21    20  ar
    25    20    23   1
    26    22    21  ar
    27    23    24   3
    28    26    25   1
    29    27    26   1
    30    27    28   2
    31    27    29  am
    32    30    31   1
    33    30    36   1
    34    31    32   1
    35    31    34   1
    36    32    33   2
    37    32    37  am
    38    34    35   1
    39    35    36   1
    40    37    38   1
    41    38    39   1
    42    39    40  ar
    43    39    47  ar
    44    40    41  ar
    45    41    42  ar
    46    42    43   1
    47    42    46  ar
    48    43    44  ar
    49    43    45  ar
    50    46    47  ar
    51     4    48   1
    52     4    49   1
    53     4    50   1
    54     9    51   1
    55    10    52   1
    56    11    53   1
    57    14    54   1
    58    16    55   1
    59    16    56   1
    60    18    57   1
    61    19    58   1
    62    21    59   1
    63    22    60   1
    64    25    61   1
    65    26    62   1
    66    26    63   1
    67    29    64   1
    68    31    65   1
    69    34    66   1
    70    34    67   1
    71    35    68   1
    72    35    69   1
    73    36    70   1
    74    36    71   1
    75    37    72   1
    76    38    73   1
    77    38    74   1
    78    40    75   1
    79    41    76   1
    80    44    77   1
    81    44    78   1
    82    45    79   1
    83    45    80   1
    84    46    81   1
    85    47    82   1
@<TRIPOS>SUBSTRUCTURE
     1  MOL      2

