@<TRIPOS>MOLECULE
3utu_ligand_050
    82    85
SMALL
GAST_HUCK
****
This file was generated by PARSER (from files_GN.cpp)

@<TRIPOS>ATOM
      1 S8         20.1889  -17.6323   23.8426 S.o2        1 MOL       0.0657
      2 CL         22.3536  -13.6486   26.7056 Cl          1 MOL      -0.0788
      3 C35        21.5303  -16.5676   24.1276 C.ar        1 MOL       0.0977
      4 C10        24.7836  -12.7848   24.3150 C.3         1 MOL       0.0596
      5 O9         24.7956  -14.0681   24.9696 O.3         1 MOL      -0.3203
      6 C5         23.7105  -14.8513   24.6796 C.ar        1 MOL       0.1052
      7 O1         20.2764  -18.3045   22.3956 O.2         1 MOL      -0.1516
      8 O10        20.2871  -18.8632   24.8500 O.2         1 MOL      -0.1516
      9 C7         22.7208  -16.6675   23.3792 C.ar        1 MOL      -0.0438
     10 C3         21.4387  -15.6089   25.1531 C.ar        1 MOL      -0.0300
     11 C6         23.8067  -15.8185   23.6628 C.ar        1 MOL      -0.0306
     12 C4         22.5203  -14.7527   25.4366 C.ar        1 MOL       0.0696
     13 C13        17.7843  -15.0489   22.9184 C.2         1 MOL       0.2048
     14 N11        18.6867  -16.8931   24.0949 N.am        1 MOL      -0.2244
     15 O14        17.1606  -14.4367   23.7800 O.2         1 MOL      -0.3945
     16 C15        14.8636  -17.6912   19.9929 C.3         1 MOL       0.0687
     17 C31        13.8982  -18.7807   20.3255 C.ar        1 MOL      -0.0116
     18 C32        14.3633  -20.0326   20.7923 C.ar        1 MOL      -0.0467
     19 C33        13.4601  -21.0459   21.1674 C.ar        1 MOL      -0.0334
     20 C44        12.0719  -20.8392   21.0380 C.ar        1 MOL       0.0883
     21 C8         11.5962  -19.6075   20.5432 C.ar        1 MOL      -0.0334
     22 C9         12.5041  -18.5990   20.1706 C.ar        1 MOL      -0.0467
     23 C40        11.2289  -21.7640   21.4084 C.1         1 MOL       0.0934
     24 N63        10.4843  -22.5841   21.7176 N.1         1 MOL      -0.3338
     25 C45        17.7751  -16.5155   23.0478 C.3         1 MOL       0.1430
     26 C12        16.3902  -17.1652   23.4021 C.3         1 MOL       0.0742
     27 C46        15.3763  -17.2029   22.3530 C.2         1 MOL       0.1821
     28 O22        14.1936  -17.3361   22.6849 O.2         1 MOL      -0.3967
     29 N14        15.7349  -17.3834   21.0926 N.am        1 MOL      -0.2739
     30 N15        18.4643  -14.3461   21.9828 N.am        1 MOL      -0.2500
     31 C16        18.3640  -12.9080   21.8430 C.3         1 MOL       0.1338
     32 C17        17.1485  -12.4988   21.1402 C.2         1 MOL       0.2037
     33 O18        16.5093  -13.3276   20.4996 O.2         1 MOL      -0.3944
     34 C34        19.6447  -12.5179   21.0694 C.3         1 MOL      -0.0104
     35 C1         19.9048  -13.7367   20.1798 C.3         1 MOL      -0.0281
     36 C2         19.3822  -14.9120   21.0342 C.3         1 MOL       0.0369
     37 N19        16.7615  -11.2317   21.1845 N.am        1 MOL      -0.2737
     38 C20        15.6081  -10.6624   20.5590 C.3         1 MOL       0.0645
     39 C21        14.4813  -10.6640   21.5262 C.ar        1 MOL      -0.0210
     40 C26        13.9050  -11.8839   21.9424 C.ar        1 MOL      -0.0584
     41 C25        12.8475  -11.9030   22.8650 C.ar        1 MOL      -0.0633
     42 C24        12.3142  -10.7063   23.4150 C.ar        1 MOL       0.0188
     43 C27        11.2362  -10.7276   24.3271 C.cat       1 MOL       0.2318
     44 N29        10.7541   -9.6704   24.8582 N.pl3       1 MOL      -0.2729
     45 N28        10.6414  -11.7995   24.6899 N.pl3       1 MOL      -0.2729
     46 C23        12.9045   -9.4860   22.9815 C.ar        1 MOL      -0.0633
     47 C22        13.9635   -9.4634   22.0562 C.ar        1 MOL      -0.0584
     48 H1         25.7085  -12.2687   24.5731 H           1 MOL       0.0578
     49 H2         23.9420  -12.1805   24.6597 H           1 MOL       0.0578
     50 H3         24.7434  -12.8888   23.2287 H           1 MOL       0.0578
     51 H4         22.8171  -17.3597   22.6314 H           1 MOL       0.0610
     52 H5         20.5806  -15.5394   25.7074 H           1 MOL       0.0614
     53 H6         24.6761  -15.9153   23.1348 H           1 MOL       0.0542
     54 H7         18.4447  -16.6746   25.0085 H           1 MOL       0.1706
     55 H8         14.3414  -16.7828   19.6711 H           1 MOL       0.0704
     56 H9         15.4838  -18.0148   19.1516 H           1 MOL       0.0704
     57 H10        15.3663  -20.1911   20.9263 H           1 MOL       0.0584
     58 H11        13.8291  -21.9273   21.5378 H           1 MOL       0.0701
     59 H12        10.5921  -19.4281   20.4550 H           1 MOL       0.0701
     60 H13        12.1341  -17.7108   19.8219 H           1 MOL       0.0584
     61 H14        18.0892  -16.9754   22.1115 H           1 MOL       0.0779
     62 H15        15.9915  -16.6851   24.3008 H           1 MOL       0.0547
     63 H16        16.5768  -18.2127   23.6611 H           1 MOL       0.0547
     64 H17        16.6868  -17.3227   20.8918 H           1 MOL       0.1881
     65 H18        18.4066  -12.4233   22.8269 H           1 MOL       0.0802
     66 H19        20.4796  -12.3906   21.7649 H           1 MOL       0.0313
     67 H20        19.5369  -11.5978   20.4832 H           1 MOL       0.0313
     68 H21        20.9669  -13.8427   19.9355 H           1 MOL       0.0287
     69 H22        19.3326  -13.6463   19.2531 H           1 MOL       0.0287
     70 H23        18.8904  -15.6421   20.3820 H           1 MOL       0.0524
     71 H24        20.2187  -15.3927   21.5540 H           1 MOL       0.0524
     72 H25        17.2926  -10.6209   21.7134 H           1 MOL       0.1878
     73 H26        15.3101  -11.1967   19.6524 H           1 MOL       0.0683
     74 H27        15.8749   -9.6479   20.2530 H           1 MOL       0.0683
     75 H28        14.2537  -12.7711   21.5703 H           1 MOL       0.0557
     76 H29        12.4732  -12.8143   23.1307 H           1 MOL       0.0599
     77 H30        10.0223   -9.7354   25.4434 H           1 MOL       0.3180
     78 H31        11.1050   -8.8242   24.6638 H           1 MOL       0.3180
     79 H32        10.9001  -12.6384   24.3645 H           1 MOL       0.3180
     80 H33         9.9203  -11.7460   25.2850 H           1 MOL       0.3180
     81 H34        12.5715   -8.5832   23.3318 H           1 MOL       0.0599
     82 H35        14.3592   -8.5579   21.7752 H           1 MOL       0.0557
@<TRIPOS>BOND
     1     1     3   1
     2     1     7   2
     3     1     8   2
     4    14     1  am
     5    12     2   1
     6     3     9  ar
     7     3    10  ar
     8     5     4   1
     9     6     5   1
    10    11     6  ar
    11    12     6  ar
    12     9    11  ar
    13    10    12  ar
    14    13    15   2
    15    25    13   1
    16    13    30  am
    17    25    14   1
    18    16    17   1
    19    29    16   1
    20    17    18  ar
    21    17    22  ar
    22    18    19  ar
    23    19    20  ar
    24    21    20  ar
    25    20    23   1
    26    22    21  ar
    27    23    24   3
    28    26    25   1
    29    27    26   1
    30    27    28   2
    31    27    29  am
    32    30    31   1
    33    30    36   1
    34    31    32   1
    35    31    34   1
    36    32    33   2
    37    32    37  am
    38    34    35   1
    39    35    36   1
    40    37    38   1
    41    38    39   1
    42    39    40  ar
    43    39    47  ar
    44    40    41  ar
    45    41    42  ar
    46    42    43   1
    47    42    46  ar
    48    43    44  ar
    49    43    45  ar
    50    46    47  ar
    51     4    48   1
    52     4    49   1
    53     4    50   1
    54     9    51   1
    55    10    52   1
    56    11    53   1
    57    14    54   1
    58    16    55   1
    59    16    56   1
    60    18    57   1
    61    19    58   1
    62    21    59   1
    63    22    60   1
    64    25    61   1
    65    26    62   1
    66    26    63   1
    67    29    64   1
    68    31    65   1
    69    34    66   1
    70    34    67   1
    71    35    68   1
    72    35    69   1
    73    36    70   1
    74    36    71   1
    75    37    72   1
    76    38    73   1
    77    38    74   1
    78    40    75   1
    79    41    76   1
    80    44    77   1
    81    44    78   1
    82    45    79   1
    83    45    80   1
    84    46    81   1
    85    47    82   1
@<TRIPOS>SUBSTRUCTURE
     1  MOL      2

