@<TRIPOS>MOLECULE
3utu_ligand_047
    82    85
SMALL
GAST_HUCK
****
This file was generated by PARSER (from files_GN.cpp)

@<TRIPOS>ATOM
      1 S8         17.1952  -16.1159   25.6431 S.o2        1 MOL       0.0657
      2 CL         21.5509  -13.3741   27.3328 Cl          1 MOL      -0.0788
      3 C35        18.9162  -16.0268   25.9268 C.ar        1 MOL       0.0977
      4 C10        23.7549  -15.1308   25.1747 C.3         1 MOL       0.0596
      5 O9         23.0913  -15.7604   26.2877 O.3         1 MOL      -0.3203
      6 C5         21.7285  -15.8163   26.1634 C.ar        1 MOL       0.1052
      7 O1         16.6541  -17.5837   25.9221 O.2         1 MOL      -0.1516
      8 O10        16.4516  -15.1135   26.6320 O.2         1 MOL      -0.1516
      9 C7         19.7468  -17.0888   25.5116 C.ar        1 MOL      -0.0438
     10 C3         19.4961  -14.8729   26.4910 C.ar        1 MOL      -0.0300
     11 C6         21.1433  -16.9828   25.6294 C.ar        1 MOL      -0.0306
     12 C4         20.8960  -14.7665   26.6220 C.ar        1 MOL       0.0696
     13 C13        17.6512  -14.1579   22.4392 C.2         1 MOL       0.2048
     14 N11        16.7519  -15.6915   24.0730 N.am        1 MOL      -0.2244
     15 O14        16.7807  -13.4009   22.8629 O.2         1 MOL      -0.3945
     16 C15        13.5829  -17.1497   21.5952 C.3         1 MOL       0.0687
     17 C31        13.1193  -17.6196   20.2569 C.ar        1 MOL      -0.0116
     18 C32        11.8998  -18.3281   20.1647 C.ar        1 MOL      -0.0467
     19 C33        11.4248  -18.8000   18.9250 C.ar        1 MOL      -0.0334
     20 C44        12.1601  -18.5540   17.7474 C.ar        1 MOL       0.0883
     21 C8         13.3692  -17.8311   17.8205 C.ar        1 MOL      -0.0334
     22 C9         13.8453  -17.3758   19.0653 C.ar        1 MOL      -0.0467
     23 C40        11.7204  -18.9974   16.6015 C.1         1 MOL       0.0934
     24 N63        11.3351  -19.3905   15.5955 N.1         1 MOL      -0.3338
     25 C45        17.6337  -15.5436   22.9423 C.3         1 MOL       0.1430
     26 C12        17.3190  -16.6101   21.8331 C.3         1 MOL       0.0742
     27 C46        16.0249  -17.2785   21.9150 C.2         1 MOL       0.1821
     28 O22        15.9875  -18.4371   22.2914 O.2         1 MOL      -0.3967
     29 N14        14.9122  -16.6081   21.6187 N.am        1 MOL      -0.2739
     30 N15        18.5754  -13.6533   21.5953 N.am        1 MOL      -0.2500
     31 C16        18.5486  -12.2963   21.0886 C.3         1 MOL       0.1338
     32 C17        17.2994  -11.9250   20.4228 C.2         1 MOL       0.2037
     33 O18        16.8888  -12.6191   19.5010 O.2         1 MOL      -0.3944
     34 C34        19.7584  -12.1703   20.1286 C.3         1 MOL      -0.0104
     35 C1         20.6938  -13.2982   20.5699 C.3         1 MOL      -0.0281
     36 C2         19.7465  -14.3618   21.1487 C.3         1 MOL       0.0369
     37 N19        16.6103  -10.8814   20.8628 N.am        1 MOL      -0.2737
     38 C20        15.3753  -10.3740   20.3565 C.3         1 MOL       0.0645
     39 C21        14.3269  -10.4548   21.4050 C.ar        1 MOL      -0.0210
     40 C26        13.8011  -11.7049   21.7969 C.ar        1 MOL      -0.0584
     41 C25        12.7811  -11.7871   22.7633 C.ar        1 MOL      -0.0633
     42 C24        12.2415  -10.6248   23.3785 C.ar        1 MOL       0.0188
     43 C27        11.1842  -10.7033   24.3127 C.cat       1 MOL       0.2318
     44 N29        10.6343  -11.7931   24.6667 N.pl3       1 MOL      -0.2729
     45 N28        10.6774   -9.6660   24.8689 N.pl3       1 MOL      -0.2729
     46 C23        12.8005   -9.3783   22.9876 C.ar        1 MOL      -0.0633
     47 C22        13.8185   -9.2926   22.0213 C.ar        1 MOL      -0.0584
     48 H1         24.8285  -15.1517   25.3674 H           1 MOL       0.0578
     49 H2         23.4512  -14.0863   25.0636 H           1 MOL       0.0578
     50 H3         23.5669  -15.6641   24.2384 H           1 MOL       0.0578
     51 H4         19.3403  -17.9349   25.1057 H           1 MOL       0.0610
     52 H5         18.8992  -14.1021   26.8065 H           1 MOL       0.0614
     53 H6         21.7333  -17.7578   25.3157 H           1 MOL       0.0542
     54 H7         15.8189  -15.4627   23.9373 H           1 MOL       0.1706
     55 H8         13.5067  -17.9789   22.3073 H           1 MOL       0.0704
     56 H9         12.9053  -16.3612   21.9382 H           1 MOL       0.0704
     57 H10        11.3464  -18.5164   21.0045 H           1 MOL       0.0584
     58 H11        10.5426  -19.3196   18.8990 H           1 MOL       0.0701
     59 H12        13.9168  -17.6310   16.9766 H           1 MOL       0.0701
     60 H13        14.7225  -16.8527   19.0913 H           1 MOL       0.0584
     61 H14        18.6410  -15.7462   23.3063 H           1 MOL       0.0779
     62 H15        18.1047  -17.3742   21.8748 H           1 MOL       0.0547
     63 H16        17.3894  -16.1724   20.8346 H           1 MOL       0.0547
     64 H17        15.0114  -15.6890   21.3265 H           1 MOL       0.1881
     65 H18        18.7342  -11.6319   21.9417 H           1 MOL       0.0802
     66 H19        20.2398  -11.1907   20.2118 H           1 MOL       0.0313
     67 H20        19.4789  -12.3321   19.0821 H           1 MOL       0.0313
     68 H21        21.3778  -12.9325   21.3421 H           1 MOL       0.0287
     69 H22        21.2764  -13.6896   19.7337 H           1 MOL       0.0287
     70 H23        19.4763  -15.0856   20.3755 H           1 MOL       0.0524
     71 H24        20.2703  -14.8762   21.9581 H           1 MOL       0.0524
     72 H25        16.9899  -10.3901   21.6064 H           1 MOL       0.1878
     73 H26        15.0301  -10.8985   19.4610 H           1 MOL       0.0683
     74 H27        15.5626   -9.3376   20.0688 H           1 MOL       0.0683
     75 H28        14.1504  -12.5657   21.3672 H           1 MOL       0.0557
     76 H29        12.4321  -12.7177   23.0014 H           1 MOL       0.0599
     77 H30         9.9215  -11.7787   25.2775 H           1 MOL       0.3180
     78 H31        10.9094  -12.6214   24.3253 H           1 MOL       0.3180
     79 H32        10.9954   -8.8100   24.6801 H           1 MOL       0.3180
     80 H33         9.9633   -9.7599   25.4649 H           1 MOL       0.3180
     81 H34        12.4658   -8.4998   23.3887 H           1 MOL       0.0599
     82 H35        14.1830   -8.3700   21.7681 H           1 MOL       0.0557
@<TRIPOS>BOND
     1     1     3   1
     2     1     7   2
     3     1     8   2
     4    14     1  am
     5    12     2   1
     6     3     9  ar
     7     3    10  ar
     8     5     4   1
     9     6     5   1
    10    11     6  ar
    11    12     6  ar
    12     9    11  ar
    13    10    12  ar
    14    13    15   2
    15    25    13   1
    16    13    30  am
    17    25    14   1
    18    16    17   1
    19    29    16   1
    20    17    18  ar
    21    17    22  ar
    22    18    19  ar
    23    19    20  ar
    24    21    20  ar
    25    20    23   1
    26    22    21  ar
    27    23    24   3
    28    26    25   1
    29    27    26   1
    30    27    28   2
    31    27    29  am
    32    30    31   1
    33    30    36   1
    34    31    32   1
    35    31    34   1
    36    32    33   2
    37    32    37  am
    38    34    35   1
    39    35    36   1
    40    37    38   1
    41    38    39   1
    42    39    40  ar
    43    39    47  ar
    44    40    41  ar
    45    41    42  ar
    46    42    43   1
    47    42    46  ar
    48    43    44  ar
    49    43    45  ar
    50    46    47  ar
    51     4    48   1
    52     4    49   1
    53     4    50   1
    54     9    51   1
    55    10    52   1
    56    11    53   1
    57    14    54   1
    58    16    55   1
    59    16    56   1
    60    18    57   1
    61    19    58   1
    62    21    59   1
    63    22    60   1
    64    25    61   1
    65    26    62   1
    66    26    63   1
    67    29    64   1
    68    31    65   1
    69    34    66   1
    70    34    67   1
    71    35    68   1
    72    35    69   1
    73    36    70   1
    74    36    71   1
    75    37    72   1
    76    38    73   1
    77    38    74   1
    78    40    75   1
    79    41    76   1
    80    44    77   1
    81    44    78   1
    82    45    79   1
    83    45    80   1
    84    46    81   1
    85    47    82   1
@<TRIPOS>SUBSTRUCTURE
     1  MOL      2

