@<TRIPOS>MOLECULE
3zso_ligand_071
    78    82
SMALL
GAST_HUCK
****
This file was generated by PARSER (from files_GN.cpp)

@<TRIPOS>ATOM
      1 C1        -12.0155   51.8665    1.3460 C.ar        1 O2N      -0.0630
      2 C2        -12.2186   50.6292    1.9734 C.ar        1 O2N      -0.0640
      3 C3        -12.8388   52.2490    0.2725 C.ar        1 O2N      -0.0483
      4 C4        -13.1726   49.7256    1.4655 C.ar        1 O2N      -0.0493
      5 C5        -11.0569   45.9880   -1.8320 C.ar        1 O2N      -0.0712
      6 C6        -17.3667   51.8934   -3.3507 C.ar        1 O2N      -0.0648
      7 C7        -18.7734   51.1993   -1.4929 C.ar        1 O2N      -0.0648
      8 C8        -17.8706   55.1182   -2.0814 C.ar        1 O2N      -0.0648
      9 C9        -15.5155   55.0023   -1.4992 C.ar        1 O2N      -0.0648
     10 C10       -10.2573   44.8284   -1.6963 C.ar        1 O2N      -0.0449
     11 C11       -17.9985   50.9484   -4.1812 C.ar        1 O2N      -0.0392
     12 C12       -19.4109   50.2569   -2.3251 C.ar        1 O2N      -0.0392
     13 C13       -17.6970   56.4390   -2.5326 C.ar        1 O2N      -0.0392
     14 C14       -15.3427   56.3252   -1.9406 C.ar        1 O2N      -0.0392
     15 C15       -13.8444   51.3715   -0.2113 C.ar        1 O2N       0.0566
     16 C16       -12.0576   45.5881    0.3601 C.ar        1 O2N       0.0376
     17 C17       -17.7385   52.0335   -1.9873 C.ar        1 O2N      -0.0192
     18 C18       -16.7833   54.3642   -1.5711 C.ar        1 O2N      -0.0192
     19 C19       -13.9438   50.0479    0.3198 C.ar        1 O2N       0.0220
     20 C20       -11.9505   46.4072   -0.8059 C.ar        1 O2N      -0.0032
     21 C21       -10.3657   44.0627   -0.5247 C.ar        1 O2N       0.1200
     22 C22       -11.2440   44.4331    0.4843 C.ar        1 O2N       0.1327
     23 C23       -19.0062   50.1069   -3.6634 C.ar        1 O2N       0.0839
     24 C24       -16.4282   57.0434   -2.4791 C.ar        1 O2N       0.0839
     25 C25       -16.0419   44.5919   -1.6456 C.2         1 O2N      -0.1125
     26 C26       -15.5377   45.6223   -0.9409 C.2         1 O2N      -0.0447
     27 C27       -14.8100   51.8847   -1.0423 C.2         1 O2N       0.2037
     28 C28       -12.9205   45.8882    1.4278 C.2         1 O2N       0.0515
     29 C29       -10.0385   42.7693    1.1642 C.3         1 O2N       0.1864
     30 C30       -18.9837   47.8856   -4.4166 C.3         1 O2N       0.0579
     31 C31       -15.7788   58.4334   -4.2429 C.3         1 O2N       0.0579
     32 C32       -14.7817   48.9802   -0.3166 C.3         1 O2N       0.0086
     33 C33       -12.6875   47.6993   -0.9594 C.3         1 O2N       0.0003
     34 C34       -14.9759   46.8043   -1.5666 C.3         1 O2N      -0.0011
     35 C35       -17.0393   52.9791   -1.0513 C.3         1 O2N       0.0982
     36 N36       -15.9155   52.3292   -0.4515 N.am        1 O2N      -0.2653
     37 N37       -14.1480   47.6442   -0.6109 N.4         1 O2N       0.2715
     38 O38       -12.4754   46.6923    2.4192 O.co2       1 O2N      -0.5668
     39 O39       -14.5962   52.0342   -2.2478 O.2         1 O2N      -0.3883
     40 O40       -13.9433   45.0503    1.7118 O.co2       1 O2N      -0.5668
     41 O41        -9.6590   42.9542   -0.2134 O.3         1 O2N      -0.2947
     42 O42       -11.1764   43.5758    1.5278 O.3         1 O2N      -0.2890
     43 O43       -19.6087   49.1840   -4.4735 O.3         1 O2N      -0.3255
     44 O44       -16.2619   58.3313   -2.8903 O.3         1 O2N      -0.3255
     45 H1        -11.2907   52.5024    1.6874 H           1 O2N       0.0572
     46 H2        -11.6401   50.3602    2.7793 H           1 O2N       0.0635
     47 H3        -12.7324   53.1925   -0.1092 H           1 O2N       0.0651
     48 H4        -13.2974   48.8228    1.9300 H           1 O2N       0.0570
     49 H5        -10.9460   46.5415   -2.6898 H           1 O2N       0.0445
     50 H6        -16.6249   52.4750   -3.7479 H           1 O2N       0.0534
     51 H7        -19.0692   51.2717   -0.5172 H           1 O2N       0.0534
     52 H8        -18.8083   54.7084   -2.1172 H           1 O2N       0.0534
     53 H9        -14.7080   54.5255   -1.1015 H           1 O2N       0.0534
     54 H10        -9.5897   44.5536   -2.4349 H           1 O2N       0.0514
     55 H11       -17.7161   50.8615   -5.1599 H           1 O2N       0.0526
     56 H12       -20.1534   49.6705   -1.9436 H           1 O2N       0.0526
     57 H13       -18.4958   56.9590   -2.8962 H           1 O2N       0.0526
     58 H14       -14.4229   56.7656   -1.8690 H           1 O2N       0.0526
     59 H15       -16.4756   43.8296   -1.1715 H           1 O2N       0.0292
     60 H16       -16.0193   44.5850   -2.6308 H           1 O2N       0.0292
     61 H17       -15.6192   45.5896    0.0474 H           1 O2N       0.0725
     62 H18        -9.1892   43.0354    1.8000 H           1 O2N       0.0973
     63 H19       -10.2841   41.7210    1.3316 H           1 O2N       0.0973
     64 H20       -19.4981   47.2298   -5.1182 H           1 O2N       0.0575
     65 H21       -19.0688   47.4527   -3.4158 H           1 O2N       0.0575
     66 H22       -17.9286   47.9344   -4.7022 H           1 O2N       0.0575
     67 H23       -15.6564   59.4898   -4.4794 H           1 O2N       0.0575
     68 H24       -16.4934   58.0014   -4.9495 H           1 O2N       0.0575
     69 H25       -14.8073   57.9429   -4.3587 H           1 O2N       0.0575
     70 H26       -15.2265   49.3491   -1.2482 H           1 O2N       0.0995
     71 H27       -15.6116   48.7997    0.3795 H           1 O2N       0.0995
     72 H28       -12.5792   48.0907   -1.9682 H           1 O2N       0.0966
     73 H29       -12.1740   48.3955   -0.2948 H           1 O2N       0.0966
     74 H30       -15.8197   47.3671   -1.9811 H           1 O2N       0.0998
     75 H31       -14.3794   46.4817   -2.4303 H           1 O2N       0.0998
     76 H32       -17.7243   53.1579   -0.2102 H           1 O2N       0.0837
     77 H33       -15.9621   52.2049    0.5154 H           1 O2N       0.1893
     78 H34       -14.1858   47.1626    0.2841 H           1 O2N       0.2082
@<TRIPOS>BOND
     1     1     2  ar
     2     3     1  ar
     3     4     2  ar
     4    15     3  ar
     5    19     4  ar
     6     5    10  ar
     7    20     5  ar
     8     6    11  ar
     9    17     6  ar
    10     7    12  ar
    11    17     7  ar
    12     8    13  ar
    13    18     8  ar
    14     9    14  ar
    15    18     9  ar
    16    10    21  ar
    17    11    23  ar
    18    12    23  ar
    19    13    24  ar
    20    14    24  ar
    21    15    19  ar
    22    27    15   1
    23    20    16  ar
    24    16    22  ar
    25    16    28   1
    26    35    17   1
    27    35    18   1
    28    19    32   1
    29    33    20   1
    30    22    21  ar
    31    21    41   1
    32    22    42   1
    33    23    43   1
    34    24    44   1
    35    26    25   2
    36    34    26   1
    37    36    27  am
    38    27    39   2
    39    28    38  ar
    40    28    40  ar
    41    29    41   1
    42    42    29   1
    43    43    30   1
    44    44    31   1
    45    32    37   1
    46    37    33   1
    47    37    34   1
    48    35    36   1
    49     1    45   1
    50     2    46   1
    51     3    47   1
    52     4    48   1
    53     5    49   1
    54     6    50   1
    55     7    51   1
    56     8    52   1
    57     9    53   1
    58    10    54   1
    59    11    55   1
    60    12    56   1
    61    13    57   1
    62    14    58   1
    63    25    59   1
    64    25    60   1
    65    26    61   1
    66    29    62   1
    67    29    63   1
    68    30    64   1
    69    30    65   1
    70    30    66   1
    71    31    67   1
    72    31    68   1
    73    31    69   1
    74    32    70   1
    75    32    71   1
    76    33    72   1
    77    33    73   1
    78    34    74   1
    79    34    75   1
    80    35    76   1
    81    36    77   1
    82    37    78   1
@<TRIPOS>SUBSTRUCTURE
     1  O2N      1

