@<TRIPOS>MOLECULE
3zso_ligand_072
    78    82
SMALL
GAST_HUCK
****
This file was generated by PARSER (from files_GN.cpp)

@<TRIPOS>ATOM
      1 C1         -6.5664   47.8746   -0.6857 C.ar        1 O2N      -0.0630
      2 C2         -6.9338   49.2210   -0.7515 C.ar        1 O2N      -0.0640
      3 C3         -7.5373   46.8786   -0.8761 C.ar        1 O2N      -0.0483
      4 C4         -8.2711   49.5708   -0.9961 C.ar        1 O2N      -0.0493
      5 C5         -9.8291   48.1415    1.9828 C.ar        1 O2N      -0.0712
      6 C6        -12.1217   45.1161   -3.1299 C.ar        1 O2N      -0.0648
      7 C7        -12.5160   43.1045   -1.8224 C.ar        1 O2N      -0.0648
      8 C8         -8.7029   42.6680   -0.5340 C.ar        1 O2N      -0.0648
      9 C9        -10.0393   41.3457   -2.0611 C.ar        1 O2N      -0.0648
     10 C10        -9.2782   46.8959    2.3416 C.ar        1 O2N      -0.0449
     11 C11       -13.5079   45.3450   -3.1971 C.ar        1 O2N      -0.0392
     12 C12       -13.9041   43.3108   -1.9281 C.ar        1 O2N      -0.0392
     13 C13        -8.2828   41.4941    0.1241 C.ar        1 O2N      -0.0392
     14 C14        -9.6283   40.1693   -1.4083 C.ar        1 O2N      -0.0392
     15 C15        -8.8986   47.1965   -1.1416 C.ar        1 O2N       0.0566
     16 C16       -11.9548   47.0615    1.4277 C.ar        1 O2N       0.0376
     17 C17       -11.5958   43.9884   -2.4471 C.ar        1 O2N      -0.0192
     18 C18        -9.5920   42.6201   -1.6371 C.ar        1 O2N      -0.0192
     19 C19        -9.2856   48.5805   -1.1360 C.ar        1 O2N       0.0220
     20 C20       -11.1436   48.2404    1.4663 C.ar        1 O2N      -0.0032
     21 C21       -10.0673   45.7449    2.2318 C.ar        1 O2N       0.1200
     22 C22       -11.3873   45.8259    1.8198 C.ar        1 O2N       0.1327
     23 C23       -14.4073   44.4375   -2.6052 C.ar        1 O2N       0.0839
     24 C24        -8.7450   40.2329   -0.3097 C.ar        1 O2N       0.0839
     25 C25       -14.6515   50.9021   -0.5100 C.2         1 O2N      -0.1125
     26 C26       -13.5376   50.4698   -1.1179 C.2         1 O2N      -0.0447
     27 C27        -9.7598   46.1142   -1.3471 C.2         1 O2N       0.2037
     28 C28       -13.2680   47.0466    0.9089 C.2         1 O2N       0.0515
     29 C29       -10.8836   43.7511    2.2008 C.3         1 O2N       0.1864
     30 C30       -16.4244   44.1507   -3.7960 C.3         1 O2N       0.0579
     31 C31        -7.5342   38.2245   -0.4010 C.3         1 O2N       0.0579
     32 C32       -10.6684   49.1073   -1.3889 C.3         1 O2N       0.0086
     33 C33       -11.6260   49.5728    1.0105 C.3         1 O2N       0.0003
     34 C34       -12.2028   51.0390   -0.9263 C.3         1 O2N      -0.0011
     35 C35       -10.0983   43.8291   -2.3638 C.3         1 O2N       0.0982
     36 N36        -9.3655   45.0265   -2.0158 N.am        1 O2N      -0.2653
     37 N37       -11.1902   50.0815   -0.3512 N.4         1 O2N       0.2715
     38 O38       -14.3023   46.6729    1.6971 O.co2       1 O2N      -0.5668
     39 O39       -10.8806   46.1291   -0.8663 O.2         1 O2N      -0.3883
     40 O40       -13.4496   46.9777   -0.4371 O.co2       1 O2N      -0.5668
     41 O41        -9.6781   44.4843    2.4695 O.3         1 O2N      -0.2947
     42 O42       -11.9507   44.6076    1.7504 O.3         1 O2N      -0.2890
     43 O43       -15.7484   44.6806   -2.6400 O.3         1 O2N      -0.3255
     44 O44        -8.3835   39.1027    0.3640 O.3         1 O2N      -0.3255
     45 H1         -5.5861   47.6162   -0.5211 H           1 O2N       0.0572
     46 H2         -6.2258   49.9548   -0.6271 H           1 O2N       0.0635
     47 H3         -7.2122   45.9059   -0.8075 H           1 O2N       0.0651
     48 H4         -8.5044   50.5658   -1.0540 H           1 O2N       0.0570
     49 H5         -9.2302   48.9689    2.0333 H           1 O2N       0.0445
     50 H6        -11.4936   45.7839   -3.5693 H           1 O2N       0.0534
     51 H7        -12.1893   42.2992   -1.2898 H           1 O2N       0.0534
     52 H8         -8.3650   43.5616   -0.1824 H           1 O2N       0.0534
     53 H9        -10.6869   41.2588   -2.8494 H           1 O2N       0.0534
     54 H10        -8.3022   46.8243    2.6665 H           1 O2N       0.0514
     55 H11       -13.8638   46.1683   -3.6781 H           1 O2N       0.0526
     56 H12       -14.5475   42.6512   -1.4926 H           1 O2N       0.0526
     57 H13        -7.6625   41.5586    0.9291 H           1 O2N       0.0526
     58 H14        -9.9686   39.2680   -1.7435 H           1 O2N       0.0526
     59 H15       -15.5114   50.4246   -0.6518 H           1 O2N       0.0292
     60 H16       -14.6292   51.6735    0.1218 H           1 O2N       0.0292
     61 H17       -13.6098   49.6439   -1.6774 H           1 O2N       0.0725
     62 H18       -11.1956   43.2241    3.1065 H           1 O2N       0.0973
     63 H19       -10.6899   43.0021    1.4330 H           1 O2N       0.0973
     64 H20       -17.4780   44.4329   -3.7389 H           1 O2N       0.0575
     65 H21       -16.3655   43.0553   -3.8221 H           1 O2N       0.0575
     66 H22       -16.0101   44.5590   -4.7277 H           1 O2N       0.0575
     67 H23        -7.2527   37.3778    0.2275 H           1 O2N       0.0575
     68 H24        -6.6193   38.7386   -0.7203 H           1 O2N       0.0575
     69 H25        -8.0534   37.8283   -1.2835 H           1 O2N       0.0575
     70 H26       -11.4151   48.3255   -1.5291 H           1 O2N       0.0995
     71 H27       -10.5947   49.6107   -2.3627 H           1 O2N       0.0995
     72 H28       -11.3010   50.3123    1.7488 H           1 O2N       0.0966
     73 H29       -12.7164   49.5820    1.0976 H           1 O2N       0.0966
     74 H30       -12.2468   51.9298   -0.2805 H           1 O2N       0.0998
     75 H31       -11.8793   51.4081   -1.9075 H           1 O2N       0.0998
     76 H32        -9.7811   43.6690   -3.3957 H           1 O2N       0.0837
     77 H33        -8.4424   45.0308   -2.3226 H           1 O2N       0.1893
     78 H34       -10.3930   50.6834   -0.1441 H           1 O2N       0.2082
@<TRIPOS>BOND
     1     1     2  ar
     2     3     1  ar
     3     4     2  ar
     4    15     3  ar
     5    19     4  ar
     6     5    10  ar
     7    20     5  ar
     8     6    11  ar
     9    17     6  ar
    10     7    12  ar
    11    17     7  ar
    12     8    13  ar
    13    18     8  ar
    14     9    14  ar
    15    18     9  ar
    16    10    21  ar
    17    11    23  ar
    18    12    23  ar
    19    13    24  ar
    20    14    24  ar
    21    15    19  ar
    22    27    15   1
    23    20    16  ar
    24    16    22  ar
    25    16    28   1
    26    35    17   1
    27    35    18   1
    28    19    32   1
    29    33    20   1
    30    22    21  ar
    31    21    41   1
    32    22    42   1
    33    23    43   1
    34    24    44   1
    35    26    25   2
    36    34    26   1
    37    36    27  am
    38    27    39   2
    39    28    38  ar
    40    28    40  ar
    41    29    41   1
    42    42    29   1
    43    43    30   1
    44    44    31   1
    45    32    37   1
    46    37    33   1
    47    37    34   1
    48    35    36   1
    49     1    45   1
    50     2    46   1
    51     3    47   1
    52     4    48   1
    53     5    49   1
    54     6    50   1
    55     7    51   1
    56     8    52   1
    57     9    53   1
    58    10    54   1
    59    11    55   1
    60    12    56   1
    61    13    57   1
    62    14    58   1
    63    25    59   1
    64    25    60   1
    65    26    61   1
    66    29    62   1
    67    29    63   1
    68    30    64   1
    69    30    65   1
    70    30    66   1
    71    31    67   1
    72    31    68   1
    73    31    69   1
    74    32    70   1
    75    32    71   1
    76    33    72   1
    77    33    73   1
    78    34    74   1
    79    34    75   1
    80    35    76   1
    81    36    77   1
    82    37    78   1
@<TRIPOS>SUBSTRUCTURE
     1  O2N      1

