@<TRIPOS>MOLECULE
3zso_ligand_004
    78    82
SMALL
GAST_HUCK
****
This file was generated by PARSER (from files_GN.cpp)

@<TRIPOS>ATOM
      1 C1        -21.2731   48.5966   -2.0723 C.ar        1 O2N      -0.0630
      2 C2        -20.9010   47.5059   -1.2748 C.ar        1 O2N      -0.0640
      3 C3        -20.5950   48.8451   -3.2763 C.ar        1 O2N      -0.0483
      4 C4        -19.8490   46.6680   -1.6809 C.ar        1 O2N      -0.0493
      5 C5        -15.6447   49.0340   -1.8705 C.ar        1 O2N      -0.0712
      6 C6        -17.2400   51.8996   -5.3960 C.ar        1 O2N      -0.0648
      7 C7        -15.0851   51.0345   -6.1084 C.ar        1 O2N      -0.0648
      8 C8        -16.9018   48.3387   -8.3743 C.ar        1 O2N      -0.0648
      9 C9        -18.6606   49.9751   -8.0456 C.ar        1 O2N      -0.0648
     10 C10       -15.2328   50.0362   -0.9769 C.ar        1 O2N      -0.0449
     11 C11       -16.6640   53.1617   -5.1745 C.ar        1 O2N      -0.0392
     12 C12       -14.5015   52.2922   -5.8688 C.ar        1 O2N      -0.0392
     13 C13       -17.3506   48.1159   -9.6843 C.ar        1 O2N      -0.0392
     14 C14       -19.1043   49.7631   -9.3640 C.ar        1 O2N      -0.0392
     15 C15       -19.5338   48.0093   -3.7031 C.ar        1 O2N       0.0566
     16 C16       -14.8571   47.2932   -0.3421 C.ar        1 O2N       0.0376
     17 C17       -16.4651   50.8145   -5.8750 C.ar        1 O2N      -0.0192
     18 C18       -17.5490   49.2713   -7.5190 C.ar        1 O2N      -0.0192
     19 C19       -19.1377   46.8989   -2.8888 C.ar        1 O2N       0.0220
     20 C20       -15.4463   47.6481   -1.5978 C.ar        1 O2N      -0.0032
     21 C21       -14.6281   49.6606    0.2293 C.ar        1 O2N       0.1200
     22 C22       -14.4657   48.3226    0.5515 C.ar        1 O2N       0.1327
     23 C23       -15.2922   53.3674   -5.4205 C.ar        1 O2N       0.0839
     24 C24       -18.4491   48.8356  -10.1986 C.ar        1 O2N       0.0839
     25 C25       -16.5126   43.3370   -4.4300 C.2         1 O2N      -0.1125
     26 C26       -15.9648   43.5013   -3.2161 C.2         1 O2N      -0.0447
     27 C27       -18.9676   48.2725   -4.9369 C.2         1 O2N       0.2037
     28 C28       -14.6071   45.9634    0.0431 C.2         1 O2N       0.0515
     29 C29       -13.4523   49.5514    2.0327 C.3         1 O2N       0.1864
     30 C30       -14.6052   55.4195   -6.3274 C.3         1 O2N       0.0579
     31 C31       -18.1355   49.0240  -12.5369 C.3         1 O2N       0.0579
     32 C32       -18.1540   45.8533   -3.3208 C.3         1 O2N       0.0086
     33 C33       -15.7721   46.6531   -2.6819 C.3         1 O2N       0.0003
     34 C34       -16.5596   44.2895   -2.1387 C.3         1 O2N      -0.0011
     35 C35       -17.0744   49.4619   -6.1018 C.3         1 O2N       0.0982
     36 N36       -17.9637   49.1346   -5.0151 N.am        1 O2N      -0.2653
     37 N37       -16.9420   45.7283   -2.4092 N.4         1 O2N       0.2715
     38 O38       -13.7597   45.2081   -0.6832 O.co2       1 O2N      -0.5668
     39 O39       -19.3990   47.6538   -5.9030 O.2         1 O2N      -0.3883
     40 O40       -14.8345   45.5600    1.3159 O.co2       1 O2N      -0.5668
     41 O41       -14.1356   50.4850    1.1742 O.3         1 O2N      -0.2947
     42 O42       -13.8724   48.1997    1.7608 O.3         1 O2N      -0.2890
     43 O43       -14.7319   54.5892   -5.1586 O.3         1 O2N      -0.3255
     44 O44       -18.9638   48.5824  -11.4446 O.3         1 O2N      -0.3255
     45 H1        -22.0474   49.1990   -1.7875 H           1 O2N       0.0572
     46 H2        -21.4050   47.3176   -0.4021 H           1 O2N       0.0635
     47 H3        -20.8983   49.6409   -3.8467 H           1 O2N       0.0651
     48 H4        -19.6157   45.8675   -1.0844 H           1 O2N       0.0570
     49 H5        -16.0617   49.3357   -2.7523 H           1 O2N       0.0445
     50 H6        -18.2345   51.7732   -5.1935 H           1 O2N       0.0534
     51 H7        -14.4901   50.2757   -6.4473 H           1 O2N       0.0534
     52 H8        -16.1028   47.7938   -8.0355 H           1 O2N       0.0534
     53 H9        -19.1737   50.6400   -7.4650 H           1 O2N       0.0534
     54 H10       -15.3554   51.0264   -1.2051 H           1 O2N       0.0514
     55 H11       -17.2422   53.9294   -4.8293 H           1 O2N       0.0526
     56 H12       -13.4987   52.4239   -6.0216 H           1 O2N       0.0526
     57 H13       -16.8838   47.4179  -10.2686 H           1 O2N       0.0526
     58 H14       -19.9167   50.2754   -9.7123 H           1 O2N       0.0526
     59 H15       -16.0886   42.7382   -5.0961 H           1 O2N       0.0292
     60 H16       -17.3474   43.8110   -4.6798 H           1 O2N       0.0292
     61 H17       -15.1221   43.0075   -3.0296 H           1 O2N       0.0725
     62 H18       -13.6538   49.7984    3.0790 H           1 O2N       0.0973
     63 H19       -12.3715   49.6341    1.8682 H           1 O2N       0.0973
     64 H20       -14.1912   56.3790   -6.0178 H           1 O2N       0.0575
     65 H21       -15.5751   55.6021   -6.7978 H           1 O2N       0.0575
     66 H22       -13.9235   54.9730   -7.0558 H           1 O2N       0.0575
     67 H23       -18.6866   48.8726  -13.4655 H           1 O2N       0.0575
     68 H24       -17.2143   48.4387  -12.5911 H           1 O2N       0.0575
     69 H25       -17.8912   50.0866  -12.4520 H           1 O2N       0.0575
     70 H26       -17.8387   45.9888   -4.3542 H           1 O2N       0.0995
     71 H27       -18.7294   44.9220   -3.3599 H           1 O2N       0.0995
     72 H28       -14.8533   46.0949   -2.8844 H           1 O2N       0.0966
     73 H29       -15.9368   47.1885   -3.6201 H           1 O2N       0.0966
     74 H30       -15.8722   44.2737   -1.2913 H           1 O2N       0.0998
     75 H31       -17.4302   43.7300   -1.7853 H           1 O2N       0.0998
     76 H32       -16.2716   48.7350   -5.9346 H           1 O2N       0.0837
     77 H33       -17.7598   49.5858   -4.1818 H           1 O2N       0.1893
     78 H34       -17.2875   46.0399   -1.5037 H           1 O2N       0.2082
@<TRIPOS>BOND
     1     1     2  ar
     2     3     1  ar
     3     4     2  ar
     4    15     3  ar
     5    19     4  ar
     6     5    10  ar
     7    20     5  ar
     8     6    11  ar
     9    17     6  ar
    10     7    12  ar
    11    17     7  ar
    12     8    13  ar
    13    18     8  ar
    14     9    14  ar
    15    18     9  ar
    16    10    21  ar
    17    11    23  ar
    18    12    23  ar
    19    13    24  ar
    20    14    24  ar
    21    15    19  ar
    22    27    15   1
    23    20    16  ar
    24    16    22  ar
    25    16    28   1
    26    35    17   1
    27    35    18   1
    28    19    32   1
    29    33    20   1
    30    22    21  ar
    31    21    41   1
    32    22    42   1
    33    23    43   1
    34    24    44   1
    35    26    25   2
    36    34    26   1
    37    36    27  am
    38    27    39   2
    39    28    38  ar
    40    28    40  ar
    41    29    41   1
    42    42    29   1
    43    43    30   1
    44    44    31   1
    45    32    37   1
    46    37    33   1
    47    37    34   1
    48    35    36   1
    49     1    45   1
    50     2    46   1
    51     3    47   1
    52     4    48   1
    53     5    49   1
    54     6    50   1
    55     7    51   1
    56     8    52   1
    57     9    53   1
    58    10    54   1
    59    11    55   1
    60    12    56   1
    61    13    57   1
    62    14    58   1
    63    25    59   1
    64    25    60   1
    65    26    61   1
    66    29    62   1
    67    29    63   1
    68    30    64   1
    69    30    65   1
    70    30    66   1
    71    31    67   1
    72    31    68   1
    73    31    69   1
    74    32    70   1
    75    32    71   1
    76    33    72   1
    77    33    73   1
    78    34    74   1
    79    34    75   1
    80    35    76   1
    81    36    77   1
    82    37    78   1
@<TRIPOS>SUBSTRUCTURE
     1  O2N      1

