@<TRIPOS>MOLECULE
3zso_ligand_090
    78    82
SMALL
GAST_HUCK
****
This file was generated by PARSER (from files_GN.cpp)

@<TRIPOS>ATOM
      1 C1        -20.8115   44.8367   -0.1347 C.ar        1 O2N      -0.0630
      2 C2        -21.9838   45.5407   -0.4413 C.ar        1 O2N      -0.0640
      3 C3        -19.7234   44.8878   -1.0154 C.ar        1 O2N      -0.0483
      4 C4        -22.0427   46.3362   -1.5997 C.ar        1 O2N      -0.0493
      5 C5        -19.0159   50.0672   -2.7238 C.ar        1 O2N      -0.0712
      6 C6        -14.8863   46.6970   -1.5686 C.ar        1 O2N      -0.0648
      7 C7        -14.0732   44.5757   -2.4269 C.ar        1 O2N      -0.0648
      8 C8        -16.4847   47.8504   -4.3732 C.ar        1 O2N      -0.0648
      9 C9        -15.5473   46.0831   -5.7501 C.ar        1 O2N      -0.0648
     10 C10       -17.9261   50.9265   -2.9620 C.ar        1 O2N      -0.0449
     11 C11       -13.7947   46.7608   -0.6851 C.ar        1 O2N      -0.0392
     12 C12       -12.9811   44.6378   -1.5399 C.ar        1 O2N      -0.0392
     13 C13       -16.3331   48.7626   -5.4327 C.ar        1 O2N      -0.0392
     14 C14       -15.4046   46.9930   -6.8139 C.ar        1 O2N      -0.0392
     15 C15       -19.7670   45.6601   -2.2072 C.ar        1 O2N       0.0566
     16 C16       -20.5670   51.9628   -2.7984 C.ar        1 O2N       0.0376
     17 C17       -15.0502   45.6022   -2.4542 C.ar        1 O2N      -0.0192
     18 C18       -16.0784   46.4998   -4.5052 C.ar        1 O2N      -0.0192
     19 C19       -20.9334   46.4517   -2.4789 C.ar        1 O2N       0.0220
     20 C20       -20.3468   50.5567   -2.6378 C.ar        1 O2N      -0.0032
     21 C21       -18.1673   52.2936   -3.1411 C.ar        1 O2N       0.1200
     22 C22       -19.4568   52.7992   -3.0730 C.ar        1 O2N       0.1327
     23 C23       -12.8479   45.7210   -0.6519 C.ar        1 O2N       0.0839
     24 C24       -15.7711   48.3421   -6.6543 C.ar        1 O2N       0.0839
     25 C25       -23.7250   49.8915   -5.8859 C.2         1 O2N      -0.1125
     26 C26       -23.7380   49.7627   -4.5525 C.2         1 O2N      -0.0447
     27 C27       -18.6874   45.5480   -3.0824 C.2         1 O2N       0.2037
     28 C28       -21.8349   52.5752   -2.6658 C.2         1 O2N       0.0515
     29 C29       -18.0687   54.4213   -3.5104 C.3         1 O2N       0.1864
     30 C30       -12.0843   45.3618    1.5388 C.3         1 O2N       0.0579
     31 C31       -14.5327   50.1224   -7.5598 C.3         1 O2N       0.0579
     32 C32       -21.0181   47.3933   -3.6503 C.3         1 O2N       0.0086
     33 C33       -21.4399   49.5635   -2.3673 C.3         1 O2N       0.0003
     34 C34       -23.2569   48.5835   -3.8530 C.3         1 O2N      -0.0011
     35 C35       -16.2270   45.5245   -3.3770 C.3         1 O2N       0.0982
     36 N36       -17.4453   45.6905   -2.6291 N.am        1 O2N      -0.2653
     37 N37       -21.7801   48.6956   -3.5564 N.4         1 O2N       0.2715
     38 O38       -22.4006   52.6377   -1.4348 O.co2       1 O2N      -0.5668
     39 O39       -18.9014   45.2580   -4.2532 O.2         1 O2N      -0.3883
     40 O40       -22.2482   53.4948   -3.5600 O.co2       1 O2N      -0.5668
     41 O41       -17.2452   53.2546   -3.3368 O.3         1 O2N      -0.2947
     42 O42       -19.4511   54.1420   -3.2307 O.3         1 O2N      -0.2890
     43 O43       -11.7774   45.7882    0.1993 O.3         1 O2N      -0.3255
     44 O44       -15.6333   49.2067   -7.7064 O.3         1 O2N      -0.3255
     45 H1        -20.7598   44.2692    0.7152 H           1 O2N       0.0572
     46 H2        -22.7899   45.4829    0.1872 H           1 O2N       0.0635
     47 H3        -18.9004   44.3252   -0.7844 H           1 O2N       0.0651
     48 H4        -22.9077   46.8459   -1.7826 H           1 O2N       0.0570
     49 H5        -18.8239   49.0705   -2.5964 H           1 O2N       0.0445
     50 H6        -15.5723   47.4533   -1.5474 H           1 O2N       0.0534
     51 H7        -14.1476   43.7729   -3.0565 H           1 O2N       0.0534
     52 H8        -16.9005   48.1802   -3.5021 H           1 O2N       0.0534
     53 H9        -15.2555   45.1125   -5.8911 H           1 O2N       0.0534
     54 H10       -16.9709   50.5653   -2.9981 H           1 O2N       0.0514
     55 H11       -13.6994   47.5619   -0.0571 H           1 O2N       0.0526
     56 H12       -12.2863   43.8878   -1.5381 H           1 O2N       0.0526
     57 H13       -16.6273   49.7348   -5.3107 H           1 O2N       0.0526
     58 H14       -15.0249   46.6725   -7.7039 H           1 O2N       0.0526
     59 H15       -24.0795   50.7131   -6.3167 H           1 O2N       0.0292
     60 H16       -23.3680   49.1702   -6.4690 H           1 O2N       0.0292
     61 H17       -24.0875   50.5246   -4.0139 H           1 O2N       0.0725
     62 H18       -17.9719   54.7722   -4.5404 H           1 O2N       0.0973
     63 H19       -17.7220   55.2140   -2.8450 H           1 O2N       0.0973
     64 H20       -11.1785   45.4448    2.1399 H           1 O2N       0.0575
     65 H21       -12.4108   44.3200    1.5582 H           1 O2N       0.0575
     66 H22       -12.8523   45.9916    1.9946 H           1 O2N       0.0575
     67 H23       -14.4979   50.7500   -8.4495 H           1 O2N       0.0575
     68 H24       -13.5797   49.5936   -7.4744 H           1 O2N       0.0575
     69 H25       -14.6677   50.7710   -6.6912 H           1 O2N       0.0575
     70 H26       -21.3879   46.8075   -4.4962 H           1 O2N       0.0995
     71 H27       -20.0082   47.6932   -3.9334 H           1 O2N       0.0995
     72 H28       -22.3231   50.1028   -2.0250 H           1 O2N       0.0966
     73 H29       -21.1589   48.9550   -1.5032 H           1 O2N       0.0966
     74 H30       -23.4929   47.6983   -4.4530 H           1 O2N       0.0998
     75 H31       -23.8426   48.4710   -2.9355 H           1 O2N       0.0998
     76 H32       -16.2812   44.5136   -3.7948 H           1 O2N       0.0837
     77 H33       -17.3555   45.9603   -1.6996 H           1 O2N       0.1893
     78 H34       -21.4220   49.2208   -4.3593 H           1 O2N       0.2082
@<TRIPOS>BOND
     1     1     2  ar
     2     3     1  ar
     3     4     2  ar
     4    15     3  ar
     5    19     4  ar
     6     5    10  ar
     7    20     5  ar
     8     6    11  ar
     9    17     6  ar
    10     7    12  ar
    11    17     7  ar
    12     8    13  ar
    13    18     8  ar
    14     9    14  ar
    15    18     9  ar
    16    10    21  ar
    17    11    23  ar
    18    12    23  ar
    19    13    24  ar
    20    14    24  ar
    21    15    19  ar
    22    27    15   1
    23    20    16  ar
    24    16    22  ar
    25    16    28   1
    26    35    17   1
    27    35    18   1
    28    19    32   1
    29    33    20   1
    30    22    21  ar
    31    21    41   1
    32    22    42   1
    33    23    43   1
    34    24    44   1
    35    26    25   2
    36    34    26   1
    37    36    27  am
    38    27    39   2
    39    28    38  ar
    40    28    40  ar
    41    29    41   1
    42    42    29   1
    43    43    30   1
    44    44    31   1
    45    32    37   1
    46    37    33   1
    47    37    34   1
    48    35    36   1
    49     1    45   1
    50     2    46   1
    51     3    47   1
    52     4    48   1
    53     5    49   1
    54     6    50   1
    55     7    51   1
    56     8    52   1
    57     9    53   1
    58    10    54   1
    59    11    55   1
    60    12    56   1
    61    13    57   1
    62    14    58   1
    63    25    59   1
    64    25    60   1
    65    26    61   1
    66    29    62   1
    67    29    63   1
    68    30    64   1
    69    30    65   1
    70    30    66   1
    71    31    67   1
    72    31    68   1
    73    31    69   1
    74    32    70   1
    75    32    71   1
    76    33    72   1
    77    33    73   1
    78    34    74   1
    79    34    75   1
    80    35    76   1
    81    36    77   1
    82    37    78   1
@<TRIPOS>SUBSTRUCTURE
     1  O2N      1

