@<TRIPOS>MOLECULE
3zso_ligand_093
    78    82
SMALL
GAST_HUCK
****
This file was generated by PARSER (from files_GN.cpp)

@<TRIPOS>ATOM
      1 C1        -10.3400   44.4536   -2.0581 C.ar        1 O2N      -0.0630
      2 C2        -11.0226   43.5934   -2.9277 C.ar        1 O2N      -0.0640
      3 C3        -11.0631   45.2364   -1.1447 C.ar        1 O2N      -0.0483
      4 C4        -12.4239   43.5315   -2.8929 C.ar        1 O2N      -0.0493
      5 C5        -17.1558   47.2698   -3.0609 C.ar        1 O2N      -0.0712
      6 C6        -15.0848   49.7412    0.1342 C.ar        1 O2N      -0.0648
      7 C7        -12.7647   50.1192   -0.4889 C.ar        1 O2N      -0.0648
      8 C8        -11.4149   47.5502    2.6117 C.ar        1 O2N      -0.0648
      9 C9        -12.5067   49.6959    2.9011 C.ar        1 O2N      -0.0648
     10 C10       -18.2916   48.0365   -3.3623 C.ar        1 O2N      -0.0449
     11 C11       -15.4748   50.8449   -0.6465 C.ar        1 O2N      -0.0392
     12 C12       -13.1521   51.2309   -1.2575 C.ar        1 O2N      -0.0392
     13 C13       -10.5964   47.8170    3.7240 C.ar        1 O2N      -0.0392
     14 C14       -11.6813   49.9709    4.0059 C.ar        1 O2N      -0.0392
     15 C15       -12.4797   45.1676   -1.0624 C.ar        1 O2N       0.0566
     16 C16       -16.4070   47.3792   -5.4012 C.ar        1 O2N       0.0376
     17 C17       -13.7274   49.3457    0.2057 C.ar        1 O2N      -0.0192
     18 C18       -12.3754   48.4929    2.1598 C.ar        1 O2N      -0.0192
     19 C19       -13.1732   44.2945   -1.9660 C.ar        1 O2N       0.0220
     20 C20       -16.2114   46.9059   -4.0600 C.ar        1 O2N      -0.0032
     21 C21       -18.4764   48.4698   -4.6788 C.ar        1 O2N       0.1200
     22 C22       -17.5544   48.1681   -5.6677 C.ar        1 O2N       0.1327
     23 C23       -14.5080   51.5944   -1.3434 C.ar        1 O2N       0.0839
     24 C24       -10.7123   49.0361    4.4161 C.ar        1 O2N       0.0839
     25 C25       -17.2457   43.8777   -5.7259 C.2         1 O2N      -0.1125
     26 C26       -17.5482   44.3277   -4.4948 C.2         1 O2N      -0.0447
     27 C27       -13.1103   45.9448   -0.0861 C.2         1 O2N       0.2037
     28 C28       -15.5447   47.0665   -6.4836 C.2         1 O2N       0.0515
     29 C29       -19.1734   49.3597   -6.5173 C.3         1 O2N       0.1864
     30 C30       -15.1146   53.8647   -1.4582 C.3         1 O2N       0.0579
     31 C31        -8.6673   49.8558    5.2184 C.3         1 O2N       0.0579
     32 C32       -14.6594   44.1245   -2.0273 C.3         1 O2N       0.0086
     33 C33       -15.0747   46.0425   -3.5920 C.3         1 O2N       0.0003
     34 C34       -16.7539   44.0665   -3.3148 C.3         1 O2N      -0.0011
     35 C35       -13.3104   48.1658    1.0284 C.3         1 O2N       0.0982
     36 N36       -12.7616   47.2155    0.0936 N.am        1 O2N      -0.2653
     37 N37       -15.3329   44.5789   -3.2984 N.4         1 O2N       0.2715
     38 O38       -15.3304   47.9372   -7.4999 O.co2       1 O2N      -0.5668
     39 O39       -13.8925   45.4035    0.6820 O.2         1 O2N      -0.3883
     40 O40       -15.0459   45.8245   -6.6464 O.co2       1 O2N      -0.5668
     41 O41       -19.5226   49.1782   -5.1352 O.3         1 O2N      -0.2947
     42 O42       -17.9626   48.6590   -6.8568 O.3         1 O2N      -0.2890
     43 O43       -14.8713   52.6301   -2.1560 O.3         1 O2N      -0.3255
     44 O44        -9.9489   49.2799    5.5215 O.3         1 O2N      -0.3255
     45 H1         -9.3200   44.5039   -2.0860 H           1 O2N       0.0572
     46 H2        -10.5035   43.0076   -3.5818 H           1 O2N       0.0635
     47 H3        -10.5300   45.8399   -0.5113 H           1 O2N       0.0651
     48 H4        -12.8912   42.8942   -3.5430 H           1 O2N       0.0570
     49 H5        -17.0299   46.9491   -2.1005 H           1 O2N       0.0445
     50 H6        -15.8023   49.2146    0.6380 H           1 O2N       0.0534
     51 H7        -11.7741   49.8683   -0.4459 H           1 O2N       0.0534
     52 H8        -11.3148   46.6437    2.1499 H           1 O2N       0.0534
     53 H9        -13.2173   50.3815    2.6502 H           1 O2N       0.0534
     54 H10       -18.9817   48.2503   -2.6399 H           1 O2N       0.0514
     55 H11       -16.4629   51.0964   -0.7059 H           1 O2N       0.0526
     56 H12       -12.4459   51.7629   -1.7685 H           1 O2N       0.0526
     57 H13        -9.9234   47.1156    4.0387 H           1 O2N       0.0526
     58 H14       -11.7968   50.8483    4.5195 H           1 O2N       0.0526
     59 H15       -17.8670   44.0641   -6.4760 H           1 O2N       0.0292
     60 H16       -16.4230   43.3563   -5.8935 H           1 O2N       0.0292
     61 H17       -18.4045   44.8214   -4.3869 H           1 O2N       0.0725
     62 H18       -19.0414   50.4274   -6.7151 H           1 O2N       0.0973
     63 H19       -19.9925   48.9945   -7.1427 H           1 O2N       0.0973
     64 H20       -15.3237   54.6382   -2.1981 H           1 O2N       0.0575
     65 H21       -14.2440   54.1788   -0.8761 H           1 O2N       0.0575
     66 H22       -15.9814   53.7786   -0.7986 H           1 O2N       0.0575
     67 H23        -8.1314   50.0057    6.1578 H           1 O2N       0.0575
     68 H24        -8.7762   50.8272    4.7285 H           1 O2N       0.0575
     69 H25        -8.0684   49.1933    4.5878 H           1 O2N       0.0575
     70 H26       -15.1596   44.6313   -1.2037 H           1 O2N       0.0995
     71 H27       -14.8391   43.0552   -1.8683 H           1 O2N       0.0995
     72 H28       -14.6588   46.5513   -2.7221 H           1 O2N       0.0966
     73 H29       -14.2605   46.0720   -4.3099 H           1 O2N       0.0966
     74 H30       -16.7236   42.9649   -3.2164 H           1 O2N       0.0998
     75 H31       -17.2935   44.4490   -2.4352 H           1 O2N       0.0998
     76 H32       -14.1907   47.7353    1.5144 H           1 O2N       0.0837
     77 H33       -12.0538   47.5513   -0.4881 H           1 O2N       0.1893
     78 H34       -14.8723   44.0664   -4.0563 H           1 O2N       0.2082
@<TRIPOS>BOND
     1     1     2  ar
     2     3     1  ar
     3     4     2  ar
     4    15     3  ar
     5    19     4  ar
     6     5    10  ar
     7    20     5  ar
     8     6    11  ar
     9    17     6  ar
    10     7    12  ar
    11    17     7  ar
    12     8    13  ar
    13    18     8  ar
    14     9    14  ar
    15    18     9  ar
    16    10    21  ar
    17    11    23  ar
    18    12    23  ar
    19    13    24  ar
    20    14    24  ar
    21    15    19  ar
    22    27    15   1
    23    20    16  ar
    24    16    22  ar
    25    16    28   1
    26    35    17   1
    27    35    18   1
    28    19    32   1
    29    33    20   1
    30    22    21  ar
    31    21    41   1
    32    22    42   1
    33    23    43   1
    34    24    44   1
    35    26    25   2
    36    34    26   1
    37    36    27  am
    38    27    39   2
    39    28    38  ar
    40    28    40  ar
    41    29    41   1
    42    42    29   1
    43    43    30   1
    44    44    31   1
    45    32    37   1
    46    37    33   1
    47    37    34   1
    48    35    36   1
    49     1    45   1
    50     2    46   1
    51     3    47   1
    52     4    48   1
    53     5    49   1
    54     6    50   1
    55     7    51   1
    56     8    52   1
    57     9    53   1
    58    10    54   1
    59    11    55   1
    60    12    56   1
    61    13    57   1
    62    14    58   1
    63    25    59   1
    64    25    60   1
    65    26    61   1
    66    29    62   1
    67    29    63   1
    68    30    64   1
    69    30    65   1
    70    30    66   1
    71    31    67   1
    72    31    68   1
    73    31    69   1
    74    32    70   1
    75    32    71   1
    76    33    72   1
    77    33    73   1
    78    34    74   1
    79    34    75   1
    80    35    76   1
    81    36    77   1
    82    37    78   1
@<TRIPOS>SUBSTRUCTURE
     1  O2N      1

