@<TRIPOS>MOLECULE
3zso_ligand_075
    78    82
SMALL
GAST_HUCK
****
This file was generated by PARSER (from files_GN.cpp)

@<TRIPOS>ATOM
      1 C1        -16.1473   50.6044   -2.1269 C.ar        1 O2N      -0.0630
      2 C2        -15.4195   50.0315   -1.0790 C.ar        1 O2N      -0.0640
      3 C3        -16.7989   49.7773   -3.0517 C.ar        1 O2N      -0.0483
      4 C4        -15.3175   48.6367   -0.9830 C.ar        1 O2N      -0.0493
      5 C5        -11.3158   44.5633   -1.8624 C.ar        1 O2N      -0.0712
      6 C6        -18.8627   48.3487   -8.5529 C.ar        1 O2N      -0.0648
      7 C7        -16.5544   48.6763   -7.8877 C.ar        1 O2N      -0.0648
      8 C8        -19.8102   45.5177   -6.1598 C.ar        1 O2N      -0.0648
      9 C9        -20.3930   47.8175   -5.6317 C.ar        1 O2N      -0.0648
     10 C10       -10.4908   43.6892   -1.1283 C.ar        1 O2N      -0.0449
     11 C11       -18.6509   49.1575   -9.6845 C.ar        1 O2N      -0.0392
     12 C12       -16.3460   49.5000   -9.0076 C.ar        1 O2N      -0.0392
     13 C13       -21.1240   45.1144   -5.8567 C.ar        1 O2N      -0.0392
     14 C14       -21.7068   47.4137   -5.3252 C.ar        1 O2N      -0.0392
     15 C15       -16.7023   48.3611   -2.9888 C.ar        1 O2N       0.0566
     16 C16       -12.4413   45.2686    0.1928 C.ar        1 O2N       0.0376
     17 C17       -17.8316   48.1207   -7.6022 C.ar        1 O2N      -0.0192
     18 C18       -19.4252   46.8762   -6.0555 C.ar        1 O2N      -0.0192
     19 C19       -15.9115   47.7706   -1.9452 C.ar        1 O2N       0.0220
     20 C20       -12.2924   45.3729   -1.2229 C.ar        1 O2N      -0.0032
     21 C21       -10.6425   43.6233    0.2638 C.ar        1 O2N       0.1200
     22 C22       -11.5993   44.3915    0.9037 C.ar        1 O2N       0.1327
     23 C23       -17.4011   49.7669   -9.8967 C.ar        1 O2N       0.0839
     24 C24       -22.0751   46.0578   -5.4258 C.ar        1 O2N       0.0839
     25 C25       -15.9542   43.3900   -3.7778 C.2         1 O2N      -0.1125
     26 C26       -15.6866   44.5872   -4.3196 C.2         1 O2N      -0.0447
     27 C27       -17.4149   47.6249   -3.9450 C.2         1 O2N       0.2037
     28 C28       -13.3745   45.9992    0.9453 C.2         1 O2N       0.0515
     29 C29       -10.3929   43.3843    2.3942 C.3         1 O2N       0.1864
     30 C30       -17.3855   51.9707  -10.6954 C.3         1 O2N       0.0579
     31 C31       -23.5458   45.1995   -3.8104 C.3         1 O2N       0.0579
     32 C32       -15.6526   46.2933   -1.7681 C.3         1 O2N       0.0086
     33 C33       -13.1183   46.3012   -2.0529 C.3         1 O2N       0.0003
     34 C34       -14.5728   45.4280   -3.9082 C.3         1 O2N      -0.0011
     35 C35       -18.0145   47.3048   -6.3506 C.3         1 O2N       0.0982
     36 N36       -17.4394   48.0004   -5.2223 N.am        1 O2N      -0.2653
     37 N37       -14.4439   45.6825   -2.4328 N.4         1 O2N       0.2715
     38 O38       -14.4701   45.3508    1.4030 O.co2       1 O2N      -0.5668
     39 O39       -18.1093   46.6836   -3.5883 O.2         1 O2N      -0.3883
     40 O40       -12.9163   47.0011    1.7263 O.co2       1 O2N      -0.5668
     41 O41        -9.9442   42.8623    1.1302 O.3         1 O2N      -0.2947
     42 O42       -11.5711   44.1893    2.2358 O.3         1 O2N      -0.2890
     43 O43       -17.2071   50.5731  -10.9865 O.3         1 O2N      -0.3255
     44 O44       -23.3616   45.6760   -5.1554 O.3         1 O2N      -0.3255
     45 H1        -16.2179   51.6225   -2.2101 H           1 O2N       0.0572
     46 H2        -14.9633   50.6322   -0.3883 H           1 O2N       0.0635
     47 H3        -17.3719   50.2351   -3.7679 H           1 O2N       0.0651
     48 H4        -14.7826   48.2593   -0.1977 H           1 O2N       0.0570
     49 H5        -11.1924   44.6052   -2.8760 H           1 O2N       0.0445
     50 H6        -19.7863   47.9284   -8.4377 H           1 O2N       0.0534
     51 H7        -15.7650   48.5052   -7.2585 H           1 O2N       0.0534
     52 H8        -19.1330   44.8082   -6.4526 H           1 O2N       0.0534
     53 H9        -20.1462   48.8066   -5.5389 H           1 O2N       0.0534
     54 H10        -9.7813   43.1222   -1.5937 H           1 O2N       0.0514
     55 H11       -19.4141   49.3097  -10.3489 H           1 O2N       0.0526
     56 H12       -15.4240   49.9148   -9.1664 H           1 O2N       0.0526
     57 H13       -21.3815   44.1288   -5.9398 H           1 O2N       0.0526
     58 H14       -22.3938   48.1085   -5.0204 H           1 O2N       0.0526
     59 H15       -16.7210   42.8549   -4.1094 H           1 O2N       0.0292
     60 H16       -15.3947   43.0187   -3.0477 H           1 O2N       0.0292
     61 H17       -16.2690   44.8972   -5.0669 H           1 O2N       0.0725
     62 H18        -9.5971   43.9907    2.8365 H           1 O2N       0.0973
     63 H19       -10.6214   42.5613    3.0708 H           1 O2N       0.0973
     64 H20       -17.2775   52.5275  -11.6272 H           1 O2N       0.0575
     65 H21       -16.6270   52.3297   -9.9946 H           1 O2N       0.0575
     66 H22       -18.3810   52.1752  -10.2914 H           1 O2N       0.0575
     67 H23       -24.6010   44.9593   -3.6776 H           1 O2N       0.0575
     68 H24       -23.2764   45.9598   -3.0724 H           1 O2N       0.0575
     69 H25       -22.9663   44.2915   -3.6255 H           1 O2N       0.0575
     70 H26       -16.5401   45.7168   -2.0228 H           1 O2N       0.0995
     71 H27       -15.5452   46.0798   -0.7028 H           1 O2N       0.0995
     72 H28       -12.5523   46.5954   -2.9411 H           1 O2N       0.0966
     73 H29       -13.2382   47.2342   -1.5014 H           1 O2N       0.0966
     74 H30       -14.6270   46.3796   -4.4407 H           1 O2N       0.0998
     75 H31       -13.6734   44.9149   -4.2621 H           1 O2N       0.0998
     76 H32       -17.3948   46.4171   -6.4982 H           1 O2N       0.0837
     77 H33       -16.9403   48.8041   -5.4371 H           1 O2N       0.1893
     78 H34       -14.4047   44.7408   -2.0406 H           1 O2N       0.2082
@<TRIPOS>BOND
     1     1     2  ar
     2     3     1  ar
     3     4     2  ar
     4    15     3  ar
     5    19     4  ar
     6     5    10  ar
     7    20     5  ar
     8     6    11  ar
     9    17     6  ar
    10     7    12  ar
    11    17     7  ar
    12     8    13  ar
    13    18     8  ar
    14     9    14  ar
    15    18     9  ar
    16    10    21  ar
    17    11    23  ar
    18    12    23  ar
    19    13    24  ar
    20    14    24  ar
    21    15    19  ar
    22    27    15   1
    23    20    16  ar
    24    16    22  ar
    25    16    28   1
    26    35    17   1
    27    35    18   1
    28    19    32   1
    29    33    20   1
    30    22    21  ar
    31    21    41   1
    32    22    42   1
    33    23    43   1
    34    24    44   1
    35    26    25   2
    36    34    26   1
    37    36    27  am
    38    27    39   2
    39    28    38  ar
    40    28    40  ar
    41    29    41   1
    42    42    29   1
    43    43    30   1
    44    44    31   1
    45    32    37   1
    46    37    33   1
    47    37    34   1
    48    35    36   1
    49     1    45   1
    50     2    46   1
    51     3    47   1
    52     4    48   1
    53     5    49   1
    54     6    50   1
    55     7    51   1
    56     8    52   1
    57     9    53   1
    58    10    54   1
    59    11    55   1
    60    12    56   1
    61    13    57   1
    62    14    58   1
    63    25    59   1
    64    25    60   1
    65    26    61   1
    66    29    62   1
    67    29    63   1
    68    30    64   1
    69    30    65   1
    70    30    66   1
    71    31    67   1
    72    31    68   1
    73    31    69   1
    74    32    70   1
    75    32    71   1
    76    33    72   1
    77    33    73   1
    78    34    74   1
    79    34    75   1
    80    35    76   1
    81    36    77   1
    82    37    78   1
@<TRIPOS>SUBSTRUCTURE
     1  O2N      1

