@<TRIPOS>MOLECULE
3zso_ligand_016
    78    82
SMALL
GAST_HUCK
****
This file was generated by PARSER (from files_GN.cpp)

@<TRIPOS>ATOM
      1 C1        -21.6361   50.0141   -1.6645 C.ar        1 O2N      -0.0630
      2 C2        -21.8363   49.7084   -0.3144 C.ar        1 O2N      -0.0640
      3 C3        -21.3251   48.9907   -2.5718 C.ar        1 O2N      -0.0483
      4 C4        -21.7493   48.3768    0.1171 C.ar        1 O2N      -0.0493
      5 C5        -24.0450   47.2146    2.3184 C.ar        1 O2N      -0.0712
      6 C6        -17.1307   46.4767   -3.3680 C.ar        1 O2N      -0.0648
      7 C7        -16.8946   45.1688   -5.3970 C.ar        1 O2N      -0.0648
      8 C8        -18.7422   47.7962   -6.7564 C.ar        1 O2N      -0.0648
      9 C9        -20.3771   46.0340   -7.1142 C.ar        1 O2N      -0.0648
     10 C10       -23.7055   47.8515    3.5317 C.ar        1 O2N      -0.0449
     11 C11       -15.7696   46.2785   -3.0778 C.ar        1 O2N      -0.0392
     12 C12       -15.5287   44.9816   -5.1188 C.ar        1 O2N      -0.0392
     13 C13       -18.9720   48.2714   -8.0631 C.ar        1 O2N      -0.0392
     14 C14       -20.6198   46.5186   -8.4134 C.ar        1 O2N      -0.0392
     15 C15       -21.2255   47.6346   -2.1588 C.ar        1 O2N       0.0566
     16 C16       -22.6348   45.3131    2.9018 C.ar        1 O2N       0.0376
     17 C17       -17.7217   45.9438   -4.5459 C.ar        1 O2N      -0.0192
     18 C18       -19.4258   46.6555   -6.2668 C.ar        1 O2N      -0.0192
     19 C19       -21.4805   47.3159   -0.7832 C.ar        1 O2N       0.0220
     20 C20       -23.4697   45.9660    1.9539 C.ar        1 O2N      -0.0032
     21 C21       -22.7973   47.2218    4.3996 C.ar        1 O2N       0.1200
     22 C22       -22.2744   45.9793    4.0908 C.ar        1 O2N       0.1327
     23 C23       -14.9557   45.5340   -3.9561 C.ar        1 O2N       0.0839
     24 C24       -19.9138   47.6352   -8.8952 C.ar        1 O2N       0.0839
     25 C25       -23.7330   42.7086   -2.5880 C.2         1 O2N      -0.1125
     26 C26       -23.5757   42.9767   -1.2815 C.2         1 O2N      -0.0447
     27 C27       -20.8097   46.6855   -3.1019 C.2         1 O2N       0.2037
     28 C28       -22.1249   44.0222    2.7089 C.2         1 O2N       0.0515
     29 C29       -21.5537   46.5863    6.0436 C.3         1 O2N       0.1864
     30 C30       -13.2328   44.3454   -2.8655 C.3         1 O2N       0.0579
     31 C31       -20.8410   49.2365  -10.3652 C.3         1 O2N       0.0579
     32 C32       -21.3790   45.9250   -0.2203 C.3         1 O2N       0.0086
     33 C33       -23.7681   45.3880    0.6011 C.3         1 O2N       0.0003
     34 C34       -22.4233   43.6786   -0.7212 C.3         1 O2N      -0.0011
     35 C35       -19.1754   46.1219   -4.8914 C.3         1 O2N       0.0982
     36 N36       -19.8645   46.9981   -3.9828 N.am        1 O2N      -0.2653
     37 N37       -22.6550   45.1344   -0.4078 N.4         1 O2N       0.2715
     38 O38       -22.6409   42.9903    3.4146 O.co2       1 O2N      -0.5668
     39 O39       -21.2660   45.5497   -3.0665 O.2         1 O2N      -0.3883
     40 O40       -20.8866   43.8764    2.1759 O.co2       1 O2N      -0.5668
     41 O41       -22.3294   47.6995    5.5644 O.3         1 O2N      -0.2947
     42 O42       -21.4126   45.5622    5.0423 O.3         1 O2N      -0.2890
     43 O43       -13.6079   45.4214   -3.7422 O.3         1 O2N      -0.3255
     44 O44       -20.0859   48.0246  -10.1991 O.3         1 O2N      -0.3255
     45 H1        -21.6952   50.9859   -1.9804 H           1 O2N       0.0572
     46 H2        -22.0349   50.4522    0.3577 H           1 O2N       0.0635
     47 H3        -21.1694   49.2530   -3.5504 H           1 O2N       0.0651
     48 H4        -21.8602   48.1936    1.1170 H           1 O2N       0.0570
     49 H5        -24.6817   47.7035    1.6878 H           1 O2N       0.0445
     50 H6        -17.6854   47.0197   -2.7047 H           1 O2N       0.0534
     51 H7        -17.2795   44.7478   -6.2451 H           1 O2N       0.0534
     52 H8        -18.0586   48.2760   -6.1690 H           1 O2N       0.0534
     53 H9        -20.9050   45.2200   -6.7927 H           1 O2N       0.0534
     54 H10       -24.0950   48.7700    3.7691 H           1 O2N       0.0514
     55 H11       -15.3684   46.6871   -2.2308 H           1 O2N       0.0526
     56 H12       -14.9441   44.4490   -5.7669 H           1 O2N       0.0526
     57 H13       -18.4419   49.0741   -8.4097 H           1 O2N       0.0526
     58 H14       -21.2990   46.0437   -9.0132 H           1 O2N       0.0526
     59 H15       -24.5202   42.1820   -2.8921 H           1 O2N       0.0292
     60 H16       -23.0650   43.0005   -3.2626 H           1 O2N       0.0292
     61 H17       -24.2595   42.6186   -0.6526 H           1 O2N       0.0725
     62 H18       -22.0467   46.1580    6.9201 H           1 O2N       0.0973
     63 H19       -20.5644   46.9379    6.3453 H           1 O2N       0.0973
     64 H20       -12.1439   44.3227   -2.8124 H           1 O2N       0.0575
     65 H21       -13.5745   43.3800   -3.2453 H           1 O2N       0.0575
     66 H22       -13.6215   44.5026   -1.8573 H           1 O2N       0.0575
     67 H23       -20.9847   49.3986  -11.4352 H           1 O2N       0.0575
     68 H24       -20.2989   50.0943   -9.9605 H           1 O2N       0.0575
     69 H25       -21.8263   49.1684   -9.8954 H           1 O2N       0.0575
     70 H26       -21.1080   45.9356    0.8392 H           1 O2N       0.0995
     71 H27       -20.5230   45.4495   -0.7013 H           1 O2N       0.0995
     72 H28       -24.4725   46.0429    0.0729 H           1 O2N       0.0966
     73 H29       -24.3410   44.4714    0.7982 H           1 O2N       0.0966
     74 H30       -21.6126   43.5670   -1.4441 H           1 O2N       0.0998
     75 H31       -22.0933   43.1505    0.1773 H           1 O2N       0.0998
     76 H32       -19.5980   45.1153   -4.8225 H           1 O2N       0.0837
     77 H33       -19.5385   47.9122   -3.9600 H           1 O2N       0.1893
     78 H34       -23.0328   45.4971   -1.2863 H           1 O2N       0.2082
@<TRIPOS>BOND
     1     1     2  ar
     2     3     1  ar
     3     4     2  ar
     4    15     3  ar
     5    19     4  ar
     6     5    10  ar
     7    20     5  ar
     8     6    11  ar
     9    17     6  ar
    10     7    12  ar
    11    17     7  ar
    12     8    13  ar
    13    18     8  ar
    14     9    14  ar
    15    18     9  ar
    16    10    21  ar
    17    11    23  ar
    18    12    23  ar
    19    13    24  ar
    20    14    24  ar
    21    15    19  ar
    22    27    15   1
    23    20    16  ar
    24    16    22  ar
    25    16    28   1
    26    35    17   1
    27    35    18   1
    28    19    32   1
    29    33    20   1
    30    22    21  ar
    31    21    41   1
    32    22    42   1
    33    23    43   1
    34    24    44   1
    35    26    25   2
    36    34    26   1
    37    36    27  am
    38    27    39   2
    39    28    38  ar
    40    28    40  ar
    41    29    41   1
    42    42    29   1
    43    43    30   1
    44    44    31   1
    45    32    37   1
    46    37    33   1
    47    37    34   1
    48    35    36   1
    49     1    45   1
    50     2    46   1
    51     3    47   1
    52     4    48   1
    53     5    49   1
    54     6    50   1
    55     7    51   1
    56     8    52   1
    57     9    53   1
    58    10    54   1
    59    11    55   1
    60    12    56   1
    61    13    57   1
    62    14    58   1
    63    25    59   1
    64    25    60   1
    65    26    61   1
    66    29    62   1
    67    29    63   1
    68    30    64   1
    69    30    65   1
    70    30    66   1
    71    31    67   1
    72    31    68   1
    73    31    69   1
    74    32    70   1
    75    32    71   1
    76    33    72   1
    77    33    73   1
    78    34    74   1
    79    34    75   1
    80    35    76   1
    81    36    77   1
    82    37    78   1
@<TRIPOS>SUBSTRUCTURE
     1  O2N      1

