@<TRIPOS>MOLECULE
3zso_ligand_094
    78    82
SMALL
GAST_HUCK
****
This file was generated by PARSER (from files_GN.cpp)

@<TRIPOS>ATOM
      1 C1        -17.1509   42.8785   -4.7624 C.ar        1 O2N      -0.0630
      2 C2        -16.4902   42.6245   -3.5558 C.ar        1 O2N      -0.0640
      3 C3        -16.8165   44.0130   -5.5104 C.ar        1 O2N      -0.0483
      4 C4        -15.4208   43.4355   -3.1562 C.ar        1 O2N      -0.0493
      5 C5        -10.9426   45.4567   -1.7343 C.ar        1 O2N      -0.0712
      6 C6        -16.9144   49.5435   -4.6009 C.ar        1 O2N      -0.0648
      7 C7        -15.5752   50.4416   -6.4113 C.ar        1 O2N      -0.0648
      8 C8        -19.1198   48.1202   -6.7115 C.ar        1 O2N      -0.0648
      9 C9        -17.9362   48.0795   -8.8273 C.ar        1 O2N      -0.0648
     10 C10       -10.0489   44.4954   -1.2249 C.ar        1 O2N      -0.0449
     11 C11       -16.6816   50.7039   -3.8448 C.ar        1 O2N      -0.0392
     12 C12       -15.3510   51.6124   -5.6637 C.ar        1 O2N      -0.0392
     13 C13       -20.3491   48.1277   -7.3939 C.ar        1 O2N      -0.0392
     14 C14       -19.1659   48.0672   -9.5136 C.ar        1 O2N      -0.0392
     15 C15       -15.7775   44.8818   -5.0958 C.ar        1 O2N       0.0566
     16 C16       -12.1637   45.4943    0.3875 C.ar        1 O2N       0.0376
     17 C17       -16.3639   49.3842   -5.8966 C.ar        1 O2N      -0.0192
     18 C18       -17.8881   48.1102   -7.4118 C.ar        1 O2N      -0.0192
     19 C19       -15.0249   44.5596   -3.9256 C.ar        1 O2N       0.0220
     20 C20       -12.0195   45.9591   -0.9525 C.ar        1 O2N      -0.0032
     21 C21       -10.2414   44.0278    0.0829 C.ar        1 O2N       0.1200
     22 C22       -11.2756   44.5112    0.8683 C.ar        1 O2N       0.1327
     23 C23       -15.9060   51.7524   -4.3769 C.ar        1 O2N       0.0839
     24 C24       -20.3823   48.0848   -8.8015 C.ar        1 O2N       0.0839
     25 C25       -17.2104   46.2600   -2.5975 C.2         1 O2N      -0.1125
     26 C26       -16.5340   45.5006   -1.7039 C.2         1 O2N      -0.0447
     27 C27       -15.5649   46.0055   -5.8723 C.2         1 O2N       0.2037
     28 C28       -13.1217   46.0097    1.2819 C.2         1 O2N       0.0515
     29 C29       -10.2032   42.9744    1.9588 C.3         1 O2N       0.1864
     30 C30       -16.7083   53.8145   -3.5858 C.3         1 O2N       0.0579
     31 C31       -22.2929   46.9036   -9.5570 C.3         1 O2N       0.0579
     32 C32       -13.9015   45.3779   -3.3727 C.3         1 O2N       0.0086
     33 C33       -12.9821   46.9101   -1.6081 C.3         1 O2N       0.0003
     34 C34       -15.2156   45.8402   -1.2052 C.3         1 O2N      -0.0011
     35 C35       -16.5725   48.1346   -6.6951 C.3         1 O2N       0.0982
     36 N36       -16.4625   46.9850   -5.8352 N.am        1 O2N      -0.2653
     37 N37       -14.2244   46.3123   -2.2312 N.4         1 O2N       0.2715
     38 O38       -12.7993   47.0610    2.0740 O.co2       1 O2N      -0.5668
     39 O39       -14.6292   46.0153   -6.6634 O.2         1 O2N      -0.3883
     40 O40       -14.2312   45.3008    1.5887 O.co2       1 O2N      -0.5668
     41 O41        -9.4724   43.1344    0.7278 O.3         1 O2N      -0.2947
     42 O42       -11.2541   43.9525    2.0911 O.3         1 O2N      -0.2890
     43 O43       -15.6289   52.8635   -3.6262 O.3         1 O2N      -0.3255
     44 O44       -21.5611   48.1421   -9.4969 O.3         1 O2N      -0.3255
     45 H1        -17.8871   42.2464   -5.0828 H           1 O2N       0.0572
     46 H2        -16.7876   41.8415   -2.9693 H           1 O2N       0.0635
     47 H3        -17.3560   44.2003   -6.3573 H           1 O2N       0.0651
     48 H4        -14.9316   43.1965   -2.2864 H           1 O2N       0.0570
     49 H5        -10.8076   45.7707   -2.7060 H           1 O2N       0.0445
     50 H6        -17.4679   48.8035   -4.1770 H           1 O2N       0.0534
     51 H7        -15.1533   50.3712   -7.3377 H           1 O2N       0.0534
     52 H8        -19.1464   48.1046   -5.6959 H           1 O2N       0.0534
     53 H9        -17.0756   48.0677   -9.3759 H           1 O2N       0.0534
     54 H10        -9.2804   44.1427   -1.8002 H           1 O2N       0.0514
     55 H11       -17.0669   50.7826   -2.9021 H           1 O2N       0.0526
     56 H12       -14.7701   52.3590   -6.0490 H           1 O2N       0.0526
     57 H13       -21.2223   48.1568   -6.8599 H           1 O2N       0.0526
     58 H14       -19.1795   48.0530  -10.5381 H           1 O2N       0.0526
     59 H15       -18.1222   45.9926   -2.8918 H           1 O2N       0.0292
     60 H16       -16.8131   47.1132   -2.9334 H           1 O2N       0.0292
     61 H17       -16.9932   44.6888   -1.3563 H           1 O2N       0.0725
     62 H18        -9.5151   43.0630    2.8035 H           1 O2N       0.0973
     63 H19       -10.6470   41.9745    1.9760 H           1 O2N       0.0973
     64 H20       -16.3900   54.6587   -2.9755 H           1 O2N       0.0575
     65 H21       -17.6033   53.3848   -3.1301 H           1 O2N       0.0575
     66 H22       -16.9481   54.1847   -4.5849 H           1 O2N       0.0575
     67 H23       -23.1357   47.0416  -10.2337 H           1 O2N       0.0575
     68 H24       -22.6870   46.6313   -8.5773 H           1 O2N       0.0575
     69 H25       -21.6750   46.0892   -9.9389 H           1 O2N       0.0575
     70 H26       -13.4649   45.9673   -4.1764 H           1 O2N       0.0995
     71 H27       -13.1099   44.6824   -3.0727 H           1 O2N       0.0995
     72 H28       -12.4513   47.4576   -2.3888 H           1 O2N       0.0966
     73 H29       -13.2579   47.6812   -0.8913 H           1 O2N       0.0966
     74 H30       -14.8015   44.9707   -0.6861 H           1 O2N       0.0998
     75 H31       -15.3830   46.6193   -0.4539 H           1 O2N       0.0998
     76 H32       -15.7758   48.0683   -7.4468 H           1 O2N       0.0837
     77 H33       -17.1520   46.8940   -5.1537 H           1 O2N       0.1893
     78 H34       -14.6678   47.1074   -2.6830 H           1 O2N       0.2082
@<TRIPOS>BOND
     1     1     2  ar
     2     3     1  ar
     3     4     2  ar
     4    15     3  ar
     5    19     4  ar
     6     5    10  ar
     7    20     5  ar
     8     6    11  ar
     9    17     6  ar
    10     7    12  ar
    11    17     7  ar
    12     8    13  ar
    13    18     8  ar
    14     9    14  ar
    15    18     9  ar
    16    10    21  ar
    17    11    23  ar
    18    12    23  ar
    19    13    24  ar
    20    14    24  ar
    21    15    19  ar
    22    27    15   1
    23    20    16  ar
    24    16    22  ar
    25    16    28   1
    26    35    17   1
    27    35    18   1
    28    19    32   1
    29    33    20   1
    30    22    21  ar
    31    21    41   1
    32    22    42   1
    33    23    43   1
    34    24    44   1
    35    26    25   2
    36    34    26   1
    37    36    27  am
    38    27    39   2
    39    28    38  ar
    40    28    40  ar
    41    29    41   1
    42    42    29   1
    43    43    30   1
    44    44    31   1
    45    32    37   1
    46    37    33   1
    47    37    34   1
    48    35    36   1
    49     1    45   1
    50     2    46   1
    51     3    47   1
    52     4    48   1
    53     5    49   1
    54     6    50   1
    55     7    51   1
    56     8    52   1
    57     9    53   1
    58    10    54   1
    59    11    55   1
    60    12    56   1
    61    13    57   1
    62    14    58   1
    63    25    59   1
    64    25    60   1
    65    26    61   1
    66    29    62   1
    67    29    63   1
    68    30    64   1
    69    30    65   1
    70    30    66   1
    71    31    67   1
    72    31    68   1
    73    31    69   1
    74    32    70   1
    75    32    71   1
    76    33    72   1
    77    33    73   1
    78    34    74   1
    79    34    75   1
    80    35    76   1
    81    36    77   1
    82    37    78   1
@<TRIPOS>SUBSTRUCTURE
     1  O2N      1

