@<TRIPOS>MOLECULE
3zso_ligand_077
    78    82
SMALL
GAST_HUCK
****
This file was generated by PARSER (from files_GN.cpp)

@<TRIPOS>ATOM
      1 C1        -16.9972   51.0582   -2.4522 C.ar        1 O2N      -0.0630
      2 C2        -16.2996   50.3569   -1.4544 C.ar        1 O2N      -0.0640
      3 C3        -17.4720   50.3762   -3.5852 C.ar        1 O2N      -0.0483
      4 C4        -16.0855   48.9711   -1.5872 C.ar        1 O2N      -0.0493
      5 C5        -12.1238   44.9064   -2.3057 C.ar        1 O2N      -0.0712
      6 C6        -18.0845   45.0596   -5.7208 C.ar        1 O2N      -0.0648
      7 C7        -20.1541   44.8357   -6.9666 C.ar        1 O2N      -0.0648
      8 C8        -21.2257   48.5113   -7.2172 C.ar        1 O2N      -0.0648
      9 C9        -18.9566   48.1230   -7.9783 C.ar        1 O2N      -0.0648
     10 C10       -11.1625   43.9647   -1.8992 C.ar        1 O2N      -0.0449
     11 C11       -17.7310   43.7403   -6.0824 C.ar        1 O2N      -0.0392
     12 C12       -19.7968   43.5257   -7.3391 C.ar        1 O2N      -0.0392
     13 C13       -21.4596   49.3305   -8.3384 C.ar        1 O2N      -0.0392
     14 C14       -19.1815   48.9561   -9.0884 C.ar        1 O2N      -0.0392
     15 C15       -17.2691   48.9802   -3.7278 C.ar        1 O2N       0.0566
     16 C16       -12.7674   45.3047    0.0245 C.ar        1 O2N       0.0376
     17 C17       -19.3056   45.6352   -6.1562 C.ar        1 O2N      -0.0192
     18 C18       -19.9683   47.8921   -7.0137 C.ar        1 O2N      -0.0192
     19 C19       -16.5404   48.2604   -2.7266 C.ar        1 O2N       0.0220
     20 C20       -12.9598   45.5689   -1.3641 C.ar        1 O2N      -0.0032
     21 C21       -11.0196   43.6952   -0.5320 C.ar        1 O2N       0.1200
     22 C22       -11.7907   44.3593    0.4107 C.ar        1 O2N       0.1327
     23 C23       -18.5872   42.9532   -6.8840 C.ar        1 O2N       0.0839
     24 C24       -20.4407   49.5523   -9.2838 C.ar        1 O2N       0.0839
     25 C25       -14.8608   44.2614   -4.4034 C.2         1 O2N      -0.1125
     26 C26       -15.5805   43.8822   -3.3439 C.2         1 O2N      -0.0447
     27 C27       -17.7893   48.3543   -4.8548 C.2         1 O2N       0.2037
     28 C28       -13.5220   45.9323    1.0292 C.2         1 O2N       0.0515
     29 C29       -10.3544   43.0919    1.4275 C.3         1 O2N       0.1864
     30 C30       -18.9752   40.6070   -6.7444 C.3         1 O2N       0.0579
     31 C31       -20.8615   49.7520  -11.5963 C.3         1 O2N       0.0579
     32 C32       -16.3195   46.7876   -2.8584 C.3         1 O2N       0.0086
     33 C33       -14.0085   46.5186   -1.8591 C.3         1 O2N       0.0003
     34 C34       -15.6388   44.5389   -2.0421 C.3         1 O2N      -0.0011
     35 C35       -19.7229   47.0359   -5.8011 C.3         1 O2N       0.0982
     36 N36       -18.9706   47.7456   -4.7840 N.am        1 O2N      -0.2653
     37 N37       -15.4411   46.0263   -1.8926 N.4         1 O2N       0.2715
     38 O38       -12.9813   46.9659    1.7113 O.co2       1 O2N      -0.5668
     39 O39       -17.0857   48.3275   -5.8553 O.2         1 O2N      -0.3883
     40 O40       -14.5037   45.2376    1.6385 O.co2       1 O2N      -0.5668
     41 O41       -10.1620   42.8230    0.0292 O.3         1 O2N      -0.2947
     42 O42       -11.4734   43.9656    1.6618 O.3         1 O2N      -0.2890
     43 O43       -18.1587   41.6887   -7.2157 O.3         1 O2N      -0.3255
     44 O44       -20.6547   50.4059  -10.3322 O.3         1 O2N      -0.3255
     45 H1        -17.1643   52.0625   -2.3503 H           1 O2N       0.0572
     46 H2        -15.9630   50.8560   -0.6278 H           1 O2N       0.0635
     47 H3        -17.9687   50.9095   -4.3078 H           1 O2N       0.0651
     48 H4        -15.6136   48.4953   -0.8229 H           1 O2N       0.0570
     49 H5        -12.2175   45.0877   -3.3066 H           1 O2N       0.0445
     50 H6        -17.4358   45.5844   -5.1389 H           1 O2N       0.0534
     51 H7        -21.0510   45.2037   -7.2940 H           1 O2N       0.0534
     52 H8        -21.9842   48.3755   -6.5424 H           1 O2N       0.0534
     53 H9        -18.0372   47.6847   -7.8818 H           1 O2N       0.0534
     54 H10       -10.5790   43.4770   -2.5854 H           1 O2N       0.0514
     55 H11       -16.8372   43.3525   -5.7784 H           1 O2N       0.0526
     56 H12       -20.4174   42.9821   -7.9398 H           1 O2N       0.0526
     57 H13       -22.3726   49.7738   -8.4542 H           1 O2N       0.0526
     58 H14       -18.4227   49.1291   -9.7516 H           1 O2N       0.0526
     59 H15       -14.8606   43.7106   -5.2276 H           1 O2N       0.0292
     60 H16       -14.3380   45.0940   -4.4169 H           1 O2N       0.0292
     61 H17       -16.0728   43.0186   -3.4255 H           1 O2N       0.0725
     62 H18        -9.4487   43.5493    1.8295 H           1 O2N       0.0973
     63 H19       -10.5290   42.1530    1.9487 H           1 O2N       0.0973
     64 H20       -18.4198   39.6827   -6.8948 H           1 O2N       0.0575
     65 H21       -19.9044   40.5493   -7.3187 H           1 O2N       0.0575
     66 H22       -19.2063   40.6987   -5.6776 H           1 O2N       0.0575
     67 H23       -21.0290   50.5196  -12.3534 H           1 O2N       0.0575
     68 H24       -21.7415   49.1049  -11.5698 H           1 O2N       0.0575
     69 H25       -19.9861   49.1708  -11.8925 H           1 O2N       0.0575
     70 H26       -15.9278   46.6068   -3.8581 H           1 O2N       0.0995
     71 H27       -17.3263   46.3656   -2.8251 H           1 O2N       0.0995
     72 H28       -13.7260   46.8781   -2.8536 H           1 O2N       0.0966
     73 H29       -13.9581   47.3929   -1.2152 H           1 O2N       0.0966
     74 H30       -14.9412   44.0049   -1.3976 H           1 O2N       0.0998
     75 H31       -16.6242   44.3211   -1.6162 H           1 O2N       0.0998
     76 H32       -20.6851   46.8885   -5.2994 H           1 O2N       0.0837
     77 H33       -19.4195   47.8190   -3.9253 H           1 O2N       0.1893
     78 H34       -15.8430   46.2392   -0.9704 H           1 O2N       0.2082
@<TRIPOS>BOND
     1     1     2  ar
     2     3     1  ar
     3     4     2  ar
     4    15     3  ar
     5    19     4  ar
     6     5    10  ar
     7    20     5  ar
     8     6    11  ar
     9    17     6  ar
    10     7    12  ar
    11    17     7  ar
    12     8    13  ar
    13    18     8  ar
    14     9    14  ar
    15    18     9  ar
    16    10    21  ar
    17    11    23  ar
    18    12    23  ar
    19    13    24  ar
    20    14    24  ar
    21    15    19  ar
    22    27    15   1
    23    20    16  ar
    24    16    22  ar
    25    16    28   1
    26    35    17   1
    27    35    18   1
    28    19    32   1
    29    33    20   1
    30    22    21  ar
    31    21    41   1
    32    22    42   1
    33    23    43   1
    34    24    44   1
    35    26    25   2
    36    34    26   1
    37    36    27  am
    38    27    39   2
    39    28    38  ar
    40    28    40  ar
    41    29    41   1
    42    42    29   1
    43    43    30   1
    44    44    31   1
    45    32    37   1
    46    37    33   1
    47    37    34   1
    48    35    36   1
    49     1    45   1
    50     2    46   1
    51     3    47   1
    52     4    48   1
    53     5    49   1
    54     6    50   1
    55     7    51   1
    56     8    52   1
    57     9    53   1
    58    10    54   1
    59    11    55   1
    60    12    56   1
    61    13    57   1
    62    14    58   1
    63    25    59   1
    64    25    60   1
    65    26    61   1
    66    29    62   1
    67    29    63   1
    68    30    64   1
    69    30    65   1
    70    30    66   1
    71    31    67   1
    72    31    68   1
    73    31    69   1
    74    32    70   1
    75    32    71   1
    76    33    72   1
    77    33    73   1
    78    34    74   1
    79    34    75   1
    80    35    76   1
    81    36    77   1
    82    37    78   1
@<TRIPOS>SUBSTRUCTURE
     1  O2N      1

