@<TRIPOS>MOLECULE
3zso_ligand_001
    78    82
SMALL
GAST_HUCK
****
This file was generated by PARSER (from files_GN.cpp)

@<TRIPOS>ATOM
      1 C1        -21.5177   46.3591   -0.8986 C.ar        1 O2N      -0.0630
      2 C2        -20.7006   45.2569   -0.6275 C.ar        1 O2N      -0.0640
      3 C3        -21.0828   47.3435   -1.8036 C.ar        1 O2N      -0.0483
      4 C4        -19.4611   45.1310   -1.2595 C.ar        1 O2N      -0.0493
      5 C5        -13.0861   45.7521   -2.9433 C.ar        1 O2N      -0.0712
      6 C6        -17.6535   48.0621   -6.5267 C.ar        1 O2N      -0.0648
      7 C7        -18.0336   50.4300   -6.8705 C.ar        1 O2N      -0.0648
      8 C8        -19.8764   51.3400   -4.5297 C.ar        1 O2N      -0.0648
      9 C9        -21.9115   50.5148   -5.5672 C.ar        1 O2N      -0.0648
     10 C10       -11.7780   45.2854   -2.7596 C.ar        1 O2N      -0.0449
     11 C11       -16.3902   48.1736   -7.1381 C.ar        1 O2N      -0.0392
     12 C12       -16.7757   50.5454   -7.4905 C.ar        1 O2N      -0.0392
     13 C13       -20.5550   52.4995   -4.1179 C.ar        1 O2N      -0.0392
     14 C14       -22.5926   51.6750   -5.1557 C.ar        1 O2N      -0.0392
     15 C15       -19.8238   47.2305   -2.4436 C.ar        1 O2N       0.0566
     16 C16       -13.3977   45.9765   -0.5329 C.ar        1 O2N       0.0376
     17 C17       -18.4800   49.1996   -6.3186 C.ar        1 O2N      -0.0192
     18 C18       -20.5347   50.3270   -5.2717 C.ar        1 O2N      -0.0192
     19 C19       -18.9897   46.1049   -2.1647 C.ar        1 O2N       0.0220
     20 C20       -13.9312   46.0848   -1.8529 C.ar        1 O2N      -0.0032
     21 C21       -11.2865   45.1685   -1.4607 C.ar        1 O2N       0.1200
     22 C22       -12.0682   45.5099   -0.3647 C.ar        1 O2N       0.1327
     23 C23       -15.9324   49.4224   -7.5982 C.ar        1 O2N       0.0839
     24 C24       -21.9200   52.6692   -4.4171 C.ar        1 O2N       0.0839
     25 C25       -15.6780   43.7429   -4.4841 C.2         1 O2N      -0.1125
     26 C26       -16.1367   43.2907   -3.3189 C.2         1 O2N      -0.0447
     27 C27       -19.5023   48.2085   -3.3752 C.2         1 O2N       0.2037
     28 C28       -14.1200   46.3245    0.6320 C.2         1 O2N       0.0515
     29 C29       -10.1431   44.7564    0.3294 C.3         1 O2N       0.1864
     30 C30       -13.7672   50.3342   -7.5501 C.3         1 O2N       0.0579
     31 C31       -23.2195   53.7186   -2.7693 C.3         1 O2N       0.0579
     32 C32       -17.7026   45.8337   -2.8792 C.3         1 O2N       0.0086
     33 C33       -15.3480   46.4962   -2.1520 C.3         1 O2N       0.0003
     34 C34       -16.1206   44.0366   -2.0578 C.3         1 O2N      -0.0011
     35 C35       -19.8404   49.0634   -5.6904 C.3         1 O2N       0.0982
     36 N36       -19.9640   48.1097   -4.6100 N.am        1 O2N      -0.2653
     37 N37       -16.4891   45.5043   -2.0271 N.4         1 O2N       0.2715
     38 O38       -13.7242   47.3907    1.3522 O.co2       1 O2N      -0.5668
     39 O39       -18.7846   49.1237   -3.0088 O.2         1 O2N      -0.3883
     40 O40       -14.7357   45.3430    1.3179 O.co2       1 O2N      -0.5668
     41 O41       -10.0624   44.7372   -1.1048 O.3         1 O2N      -0.2947
     42 O42       -11.3871   45.3320    0.7848 O.3         1 O2N      -0.2890
     43 O43       -14.7201   49.5047   -8.2301 O.3         1 O2N      -0.3255
     44 O44       -22.5768   53.8136   -4.0470 O.3         1 O2N      -0.3255
     45 H1        -22.4310   46.4437   -0.4406 H           1 O2N       0.0572
     46 H2        -21.0242   44.5233    0.0162 H           1 O2N       0.0635
     47 H3        -21.7094   48.1260   -2.0025 H           1 O2N       0.0651
     48 H4        -18.9038   44.2952   -1.0615 H           1 O2N       0.0570
     49 H5        -13.4202   45.8513   -3.9147 H           1 O2N       0.0445
     50 H6        -17.9766   47.1381   -6.2661 H           1 O2N       0.0534
     51 H7        -18.6306   51.2596   -6.8306 H           1 O2N       0.0534
     52 H8        -18.8856   51.2457   -4.2975 H           1 O2N       0.0534
     53 H9        -22.4290   49.8064   -6.0890 H           1 O2N       0.0534
     54 H10       -11.1892   45.0398   -3.5602 H           1 O2N       0.0514
     55 H11       -15.8111   47.3384   -7.2656 H           1 O2N       0.0526
     56 H12       -16.4774   51.4464   -7.8730 H           1 O2N       0.0526
     57 H13       -20.0523   53.2231   -3.5937 H           1 O2N       0.0526
     58 H14       -23.5821   51.7908   -5.3836 H           1 O2N       0.0526
     59 H15       -15.7404   43.1798   -5.3063 H           1 O2N       0.0292
     60 H16       -15.3078   44.6508   -4.5793 H           1 O2N       0.0292
     61 H17       -16.5555   42.3939   -3.3102 H           1 O2N       0.0725
     62 H18        -9.3047   45.3348    0.7304 H           1 O2N       0.0973
     63 H19       -10.0546   43.7321    0.7076 H           1 O2N       0.0973
     64 H20       -12.8416   50.3159   -8.1238 H           1 O2N       0.0575
     65 H21       -13.5550   49.9569   -6.5485 H           1 O2N       0.0575
     66 H22       -14.1100   51.3666   -7.4880 H           1 O2N       0.0575
     67 H23       -23.7345   54.6594   -2.5760 H           1 O2N       0.0575
     68 H24       -22.4915   53.5588   -1.9702 H           1 O2N       0.0575
     69 H25       -23.9619   52.9164   -2.7508 H           1 O2N       0.0575
     70 H26       -17.4819   46.6611   -3.5404 H           1 O2N       0.0995
     71 H27       -17.9429   45.0311   -3.5729 H           1 O2N       0.0995
     72 H28       -15.3538   46.9177   -3.1586 H           1 O2N       0.0966
     73 H29       -15.5838   47.3309   -1.4992 H           1 O2N       0.0966
     74 H30       -15.1412   43.8678   -1.6119 H           1 O2N       0.0998
     75 H31       -16.8127   43.5330   -1.3826 H           1 O2N       0.0998
     76 H32       -20.4295   48.6257   -6.4987 H           1 O2N       0.0837
     77 H33       -20.4747   47.3133   -4.8155 H           1 O2N       0.1893
     78 H34       -16.8083   45.6741   -1.0671 H           1 O2N       0.2082
@<TRIPOS>BOND
     1     1     2  ar
     2     3     1  ar
     3     4     2  ar
     4    15     3  ar
     5    19     4  ar
     6     5    10  ar
     7    20     5  ar
     8     6    11  ar
     9    17     6  ar
    10     7    12  ar
    11    17     7  ar
    12     8    13  ar
    13    18     8  ar
    14     9    14  ar
    15    18     9  ar
    16    10    21  ar
    17    11    23  ar
    18    12    23  ar
    19    13    24  ar
    20    14    24  ar
    21    15    19  ar
    22    27    15   1
    23    20    16  ar
    24    16    22  ar
    25    16    28   1
    26    35    17   1
    27    35    18   1
    28    19    32   1
    29    33    20   1
    30    22    21  ar
    31    21    41   1
    32    22    42   1
    33    23    43   1
    34    24    44   1
    35    26    25   2
    36    34    26   1
    37    36    27  am
    38    27    39   2
    39    28    38  ar
    40    28    40  ar
    41    29    41   1
    42    42    29   1
    43    43    30   1
    44    44    31   1
    45    32    37   1
    46    37    33   1
    47    37    34   1
    48    35    36   1
    49     1    45   1
    50     2    46   1
    51     3    47   1
    52     4    48   1
    53     5    49   1
    54     6    50   1
    55     7    51   1
    56     8    52   1
    57     9    53   1
    58    10    54   1
    59    11    55   1
    60    12    56   1
    61    13    57   1
    62    14    58   1
    63    25    59   1
    64    25    60   1
    65    26    61   1
    66    29    62   1
    67    29    63   1
    68    30    64   1
    69    30    65   1
    70    30    66   1
    71    31    67   1
    72    31    68   1
    73    31    69   1
    74    32    70   1
    75    32    71   1
    76    33    72   1
    77    33    73   1
    78    34    74   1
    79    34    75   1
    80    35    76   1
    81    36    77   1
    82    37    78   1
@<TRIPOS>SUBSTRUCTURE
     1  O2N      1

