@<TRIPOS>MOLECULE
3zso_ligand_031
    78    82
SMALL
GAST_HUCK
****
This file was generated by PARSER (from files_GN.cpp)

@<TRIPOS>ATOM
      1 C1        -16.1253   43.4659   -5.6693 C.ar        1 O2N      -0.0630
      2 C2        -17.4429   43.9265   -5.7749 C.ar        1 O2N      -0.0640
      3 C3        -15.3043   43.9444   -4.6365 C.ar        1 O2N      -0.0483
      4 C4        -17.9228   44.8999   -4.8806 C.ar        1 O2N      -0.0493
      5 C5        -17.4517   48.0665   -5.9098 C.ar        1 O2N      -0.0712
      6 C6        -11.7383   44.7671   -0.0829 C.ar        1 O2N      -0.0648
      7 C7        -11.9125   43.8475   -2.3211 C.ar        1 O2N      -0.0648
      8 C8        -14.3076   47.2573   -0.2217 C.ar        1 O2N      -0.0648
      9 C9        -12.1447   48.2625   -0.6537 C.ar        1 O2N      -0.0648
     10 C10       -16.4502   48.1019   -6.8949 C.ar        1 O2N      -0.0449
     11 C11       -11.1316   43.5788    0.3591 C.ar        1 O2N      -0.0392
     12 C12       -11.3206   42.6511   -1.8809 C.ar        1 O2N      -0.0392
     13 C13       -14.5580   48.2186    0.7758 C.ar        1 O2N      -0.0392
     14 C14       -12.3884   49.2157    0.3534 C.ar        1 O2N      -0.0392
     15 C15       -15.7901   44.9014   -3.7088 C.ar        1 O2N       0.0566
     16 C16       -16.4960   50.0475   -4.8076 C.ar        1 O2N       0.0376
     17 C17       -12.1417   44.9318   -1.4358 C.ar        1 O2N      -0.0192
     18 C18       -13.1012   47.2611   -0.9648 C.ar        1 O2N      -0.0192
     19 C19       -17.1059   45.4438   -3.8564 C.ar        1 O2N       0.0220
     20 C20       -17.4603   48.9841   -4.8239 C.ar        1 O2N      -0.0032
     21 C21       -15.4712   49.0977   -6.8202 C.ar        1 O2N       0.1200
     22 C22       -15.5023   50.0553   -5.8166 C.ar        1 O2N       0.1327
     23 C23       -10.9115   42.5142   -0.5397 C.ar        1 O2N       0.0839
     24 C24       -13.6081   49.2144    1.0609 C.ar        1 O2N       0.0839
     25 C25       -20.8298   45.7327   -0.7089 C.2         1 O2N      -0.1125
     26 C26       -20.2466   45.9417   -1.8940 C.2         1 O2N      -0.0447
     27 C27       -14.9726   45.2233   -2.6462 C.2         1 O2N       0.2037
     28 C28       -16.5523   51.1369   -3.8992 C.2         1 O2N       0.0515
     29 C29       -13.8219   50.4484   -7.1519 C.3         1 O2N       0.1864
     30 C30        -8.9391   41.4188    0.0958 C.3         1 O2N       0.0579
     31 C31       -13.8263   51.4768    1.7059 C.3         1 O2N       0.0579
     32 C32       -17.6152   46.5195   -2.9374 C.3         1 O2N       0.0086
     33 C33       -18.4999   48.7691   -3.7553 C.3         1 O2N       0.0003
     34 C34       -19.9908   47.2608   -2.4515 C.3         1 O2N      -0.0011
     35 C35       -12.7761   46.1859   -1.9687 C.3         1 O2N       0.0982
     36 N36       -13.8652   45.9175   -2.8682 N.am        1 O2N      -0.2653
     37 N37       -18.8167   47.3324   -3.3931 N.4         1 O2N       0.2715
     38 O38       -15.4611   51.8669   -3.5773 O.co2       1 O2N      -0.5668
     39 O39       -15.2159   44.6760   -1.5781 O.2         1 O2N      -0.3883
     40 O40       -17.7420   51.7056   -3.6038 O.co2       1 O2N      -0.5668
     41 O41       -14.4777   49.2947   -7.7056 O.3         1 O2N      -0.2947
     42 O42       -14.5438   50.9768   -6.0232 O.3         1 O2N      -0.2890
     43 O43       -10.3621   41.3373   -0.1046 O.3         1 O2N      -0.3255
     44 O44       -13.8327   50.0900    2.0928 O.3         1 O2N      -0.3255
     45 H1        -15.7671   42.7637   -6.3232 H           1 O2N       0.0572
     46 H2        -18.0556   43.5547   -6.5103 H           1 O2N       0.0635
     47 H3        -14.3542   43.5711   -4.5515 H           1 O2N       0.0651
     48 H4        -18.8929   45.1963   -5.0030 H           1 O2N       0.0570
     49 H5        -18.1776   47.3484   -5.9872 H           1 O2N       0.0445
     50 H6        -11.8750   45.5088    0.6062 H           1 O2N       0.0534
     51 H7        -12.1858   43.9241   -3.3020 H           1 O2N       0.0534
     52 H8        -15.0119   46.5377   -0.3662 H           1 O2N       0.0534
     53 H9        -11.2420   48.2839   -1.1395 H           1 O2N       0.0534
     54 H10       -16.4478   47.4198   -7.6557 H           1 O2N       0.0514
     55 H11       -10.8499   43.4801    1.3405 H           1 O2N       0.0526
     56 H12       -11.1802   41.8807   -2.5409 H           1 O2N       0.0526
     57 H13       -15.4306   48.1742    1.3078 H           1 O2N       0.0526
     58 H14       -11.6670   49.9055    0.5770 H           1 O2N       0.0526
     59 H15       -21.0022   44.8103   -0.3969 H           1 O2N       0.0292
     60 H16       -21.1159   46.4879   -0.1369 H           1 O2N       0.0292
     61 H17       -19.9997   45.1489   -2.4363 H           1 O2N       0.0725
     62 H18       -13.7411   51.2211   -7.9245 H           1 O2N       0.0973
     63 H19       -12.8085   50.1709   -6.8381 H           1 O2N       0.0973
     64 H20        -8.5806   40.4358    0.4034 H           1 O2N       0.0575
     65 H21        -8.6929   42.1328    0.8855 H           1 O2N       0.0575
     66 H22        -8.4219   41.6984   -0.8259 H           1 O2N       0.0575
     67 H23       -14.1034   52.0664    2.5832 H           1 O2N       0.0575
     68 H24       -14.5510   51.6791    0.9103 H           1 O2N       0.0575
     69 H25       -12.8303   51.7954    1.3812 H           1 O2N       0.0575
     70 H26       -16.7799   47.1965   -2.7264 H           1 O2N       0.0995
     71 H27       -17.8112   46.0108   -1.9889 H           1 O2N       0.0995
     72 H28       -19.4131   49.2460   -4.1318 H           1 O2N       0.0966
     73 H29       -18.2143   49.2810   -2.8288 H           1 O2N       0.0966
     74 H30       -19.8588   47.9907   -1.6479 H           1 O2N       0.0998
     75 H31       -20.9045   47.5295   -2.9956 H           1 O2N       0.0998
     76 H32       -12.0140   46.6076   -2.6263 H           1 O2N       0.0837
     77 H33       -13.7450   46.2269   -3.7814 H           1 O2N       0.1893
     78 H34       -19.1535   46.9242   -4.2612 H           1 O2N       0.2082
@<TRIPOS>BOND
     1     1     2  ar
     2     3     1  ar
     3     4     2  ar
     4    15     3  ar
     5    19     4  ar
     6     5    10  ar
     7    20     5  ar
     8     6    11  ar
     9    17     6  ar
    10     7    12  ar
    11    17     7  ar
    12     8    13  ar
    13    18     8  ar
    14     9    14  ar
    15    18     9  ar
    16    10    21  ar
    17    11    23  ar
    18    12    23  ar
    19    13    24  ar
    20    14    24  ar
    21    15    19  ar
    22    27    15   1
    23    20    16  ar
    24    16    22  ar
    25    16    28   1
    26    35    17   1
    27    35    18   1
    28    19    32   1
    29    33    20   1
    30    22    21  ar
    31    21    41   1
    32    22    42   1
    33    23    43   1
    34    24    44   1
    35    26    25   2
    36    34    26   1
    37    36    27  am
    38    27    39   2
    39    28    38  ar
    40    28    40  ar
    41    29    41   1
    42    42    29   1
    43    43    30   1
    44    44    31   1
    45    32    37   1
    46    37    33   1
    47    37    34   1
    48    35    36   1
    49     1    45   1
    50     2    46   1
    51     3    47   1
    52     4    48   1
    53     5    49   1
    54     6    50   1
    55     7    51   1
    56     8    52   1
    57     9    53   1
    58    10    54   1
    59    11    55   1
    60    12    56   1
    61    13    57   1
    62    14    58   1
    63    25    59   1
    64    25    60   1
    65    26    61   1
    66    29    62   1
    67    29    63   1
    68    30    64   1
    69    30    65   1
    70    30    66   1
    71    31    67   1
    72    31    68   1
    73    31    69   1
    74    32    70   1
    75    32    71   1
    76    33    72   1
    77    33    73   1
    78    34    74   1
    79    34    75   1
    80    35    76   1
    81    36    77   1
    82    37    78   1
@<TRIPOS>SUBSTRUCTURE
     1  O2N      1

