@<TRIPOS>MOLECULE
3zso_ligand_060
    78    82
SMALL
GAST_HUCK
****
This file was generated by PARSER (from files_GN.cpp)

@<TRIPOS>ATOM
      1 C1        -11.0310   40.8578   -2.2945 C.ar        1 O2N      -0.0630
      2 C2         -9.6395   40.9633   -2.1627 C.ar        1 O2N      -0.0640
      3 C3        -11.8203   42.0147   -2.3152 C.ar        1 O2N      -0.0483
      4 C4         -9.0472   42.2322   -2.0466 C.ar        1 O2N      -0.0493
      5 C5         -8.2848   47.9329    1.3675 C.ar        1 O2N      -0.0712
      6 C6        -16.0300   46.6270   -2.9945 C.ar        1 O2N      -0.0648
      7 C7        -14.6906   44.9301   -4.0979 C.ar        1 O2N      -0.0648
      8 C8        -14.5295   47.1207    0.2625 C.ar        1 O2N      -0.0648
      9 C9        -12.8051   47.4770   -1.4044 C.ar        1 O2N      -0.0648
     10 C10        -8.0057   48.5010    2.6219 C.ar        1 O2N      -0.0449
     11 C11       -16.6714   46.9185   -4.2129 C.ar        1 O2N      -0.0392
     12 C12       -15.3351   45.2120   -5.3180 C.ar        1 O2N      -0.0392
     13 C13       -14.1519   48.3158    0.9015 C.ar        1 O2N      -0.0392
     14 C14       -12.4417   48.6800   -0.7805 C.ar        1 O2N      -0.0392
     15 C15       -11.2459   43.3096   -2.2123 C.ar        1 O2N       0.0566
     16 C16       -10.2267   46.7450    2.2918 C.ar        1 O2N       0.0376
     17 C17       -14.9828   45.6698   -2.9233 C.ar        1 O2N      -0.0192
     18 C18       -13.8561   46.6741   -0.9027 C.ar        1 O2N      -0.0192
     19 C19        -9.8237   43.4189   -2.0782 C.ar        1 O2N       0.0220
     20 C20        -9.3682   47.0276    1.1809 C.ar        1 O2N      -0.0032
     21 C21        -8.8283   48.1778    3.7056 C.ar        1 O2N       0.1200
     22 C22        -9.9199   47.3363    3.5453 C.ar        1 O2N       0.1327
     23 C23       -16.3030   46.2328   -5.3870 C.ar        1 O2N       0.0839
     24 C24       -13.1026   49.1047    0.3915 C.ar        1 O2N       0.0839
     25 C25        -6.4504   46.7898   -1.1942 C.2         1 O2N      -0.1125
     26 C26        -6.5394   45.9750   -0.1335 C.2         1 O2N      -0.0447
     27 C27       -12.1104   44.3997   -2.3251 C.2         1 O2N       0.2037
     28 C28       -11.3995   45.9575    2.1987 C.2         1 O2N       0.0515
     29 C29        -9.8520   48.0786    5.5991 C.3         1 O2N       0.1864
     30 C30       -16.0675   47.3691   -7.4056 C.3         1 O2N       0.0579
     31 C31       -11.6500   50.2997    1.8266 C.3         1 O2N       0.0579
     32 C32        -9.0872   44.7172   -1.9355 C.3         1 O2N       0.0086
     33 C33        -9.5800   46.4797   -0.2003 C.3         1 O2N       0.0003
     34 C34        -7.5517   44.9429    0.0631 C.3         1 O2N      -0.0011
     35 C35       -14.2930   45.4216   -1.6105 C.3         1 O2N       0.0982
     36 N36       -13.2273   44.4505   -1.6011 N.am        1 O2N      -0.2653
     37 N37        -8.9424   45.1440   -0.4910 N.4         1 O2N       0.2715
     38 O38       -12.6047   46.5279    2.4208 O.co2       1 O2N      -0.5668
     39 O39       -11.9127   45.2089   -3.2205 O.2         1 O2N      -0.3883
     40 O40       -11.3975   44.6777    1.7615 O.co2       1 O2N      -0.5668
     41 O41        -8.6983   48.6457    4.9597 O.3         1 O2N      -0.2947
     42 O42       -10.5771   47.1982    4.7191 O.3         1 O2N      -0.2890
     43 O43       -16.9020   46.5398   -6.5775 O.3         1 O2N      -0.3255
     44 O44       -12.8218   50.3056    0.9966 O.3         1 O2N      -0.3255
     45 H1        -11.4651   39.9365   -2.3974 H           1 O2N       0.0572
     46 H2         -9.0571   40.1230   -2.1645 H           1 O2N       0.0635
     47 H3        -12.8314   41.8932   -2.4377 H           1 O2N       0.0651
     48 H4         -8.0289   42.2782   -1.9464 H           1 O2N       0.0570
     49 H5         -7.6760   48.1889    0.5856 H           1 O2N       0.0445
     50 H6        -16.3186   47.1468   -2.1616 H           1 O2N       0.0534
     51 H7        -14.0056   44.1731   -4.0857 H           1 O2N       0.0534
     52 H8        -15.3080   46.5773    0.6573 H           1 O2N       0.0534
     53 H9        -12.3209   47.2057   -2.2679 H           1 O2N       0.0534
     54 H10        -7.2202   49.1461    2.7399 H           1 O2N       0.0514
     55 H11       -17.3978   47.6394   -4.2483 H           1 O2N       0.0526
     56 H12       -15.0886   44.6785   -6.1569 H           1 O2N       0.0526
     57 H13       -14.6584   48.6234    1.7340 H           1 O2N       0.0526
     58 H14       -11.7039   49.2541   -1.1900 H           1 O2N       0.0526
     59 H15        -5.7005   47.4418   -1.2571 H           1 O2N       0.0292
     60 H16        -7.1319   46.7855   -1.9116 H           1 O2N       0.0292
     61 H17        -5.8369   46.0670    0.5676 H           1 O2N       0.0725
     62 H18       -10.5127   48.8867    5.9204 H           1 O2N       0.0973
     63 H19        -9.5288   47.5288    6.4852 H           1 O2N       0.0973
     64 H20       -16.6011   47.5696   -8.3337 H           1 O2N       0.0575
     65 H21       -15.1293   46.8651   -7.6528 H           1 O2N       0.0575
     66 H22       -15.8504   48.3257   -6.9227 H           1 O2N       0.0575
     67 H23       -11.6267   51.2385    2.3843 H           1 O2N       0.0575
     68 H24       -10.7423   50.2436    1.2184 H           1 O2N       0.0575
     69 H25       -11.6644   49.4729    2.5436 H           1 O2N       0.0575
     70 H26        -9.5810   45.4853   -2.5260 H           1 O2N       0.0995
     71 H27        -8.1145   44.6189   -2.4257 H           1 O2N       0.0995
     72 H28        -9.2290   47.2021   -0.9436 H           1 O2N       0.0966
     73 H29       -10.6609   46.4021   -0.3626 H           1 O2N       0.0966
     74 H30        -7.6644   44.8005    1.1435 H           1 O2N       0.0998
     75 H31        -7.1309   44.0023   -0.3057 H           1 O2N       0.0998
     76 H32       -15.0757   44.9464   -1.0116 H           1 O2N       0.0837
     77 H33       -13.3367   43.7195   -0.9718 H           1 O2N       0.1893
     78 H34        -9.5051   44.4704    0.0336 H           1 O2N       0.2082
@<TRIPOS>BOND
     1     1     2  ar
     2     3     1  ar
     3     4     2  ar
     4    15     3  ar
     5    19     4  ar
     6     5    10  ar
     7    20     5  ar
     8     6    11  ar
     9    17     6  ar
    10     7    12  ar
    11    17     7  ar
    12     8    13  ar
    13    18     8  ar
    14     9    14  ar
    15    18     9  ar
    16    10    21  ar
    17    11    23  ar
    18    12    23  ar
    19    13    24  ar
    20    14    24  ar
    21    15    19  ar
    22    27    15   1
    23    20    16  ar
    24    16    22  ar
    25    16    28   1
    26    35    17   1
    27    35    18   1
    28    19    32   1
    29    33    20   1
    30    22    21  ar
    31    21    41   1
    32    22    42   1
    33    23    43   1
    34    24    44   1
    35    26    25   2
    36    34    26   1
    37    36    27  am
    38    27    39   2
    39    28    38  ar
    40    28    40  ar
    41    29    41   1
    42    42    29   1
    43    43    30   1
    44    44    31   1
    45    32    37   1
    46    37    33   1
    47    37    34   1
    48    35    36   1
    49     1    45   1
    50     2    46   1
    51     3    47   1
    52     4    48   1
    53     5    49   1
    54     6    50   1
    55     7    51   1
    56     8    52   1
    57     9    53   1
    58    10    54   1
    59    11    55   1
    60    12    56   1
    61    13    57   1
    62    14    58   1
    63    25    59   1
    64    25    60   1
    65    26    61   1
    66    29    62   1
    67    29    63   1
    68    30    64   1
    69    30    65   1
    70    30    66   1
    71    31    67   1
    72    31    68   1
    73    31    69   1
    74    32    70   1
    75    32    71   1
    76    33    72   1
    77    33    73   1
    78    34    74   1
    79    34    75   1
    80    35    76   1
    81    36    77   1
    82    37    78   1
@<TRIPOS>SUBSTRUCTURE
     1  O2N      1

