@<TRIPOS>MOLECULE
3zso_ligand_076
    78    82
SMALL
GAST_HUCK
****
This file was generated by PARSER (from files_GN.cpp)

@<TRIPOS>ATOM
      1 C1        -15.9441   44.7598   -6.0661 C.ar        1 O2N      -0.0630
      2 C2        -15.1054   43.9515   -5.2910 C.ar        1 O2N      -0.0640
      3 C3        -16.6745   45.7998   -5.4691 C.ar        1 O2N      -0.0483
      4 C4        -14.9671   44.2027   -3.9175 C.ar        1 O2N      -0.0493
      5 C5        -10.6930   46.7681   -1.9428 C.ar        1 O2N      -0.0712
      6 C6        -19.5065   49.2707   -4.3594 C.ar        1 O2N      -0.0648
      7 C7        -19.6131   50.2759   -2.1507 C.ar        1 O2N      -0.0648
      8 C8        -16.3185   51.8370   -2.9286 C.ar        1 O2N      -0.0648
      9 C9        -16.2175   50.6133   -5.0251 C.ar        1 O2N      -0.0648
     10 C10        -9.5180   47.3844   -1.4767 C.ar        1 O2N      -0.0449
     11 C11       -20.9114   49.3289   -4.4527 C.ar        1 O2N      -0.0392
     12 C12       -21.0121   50.3578   -2.2522 C.ar        1 O2N      -0.0392
     13 C13       -15.6007   52.8965   -3.5125 C.ar        1 O2N      -0.0392
     14 C14       -15.4942   51.6695   -5.6077 C.ar        1 O2N      -0.0392
     15 C15       -16.5538   46.0587   -4.0824 C.ar        1 O2N       0.0566
     16 C16       -11.4757   46.4354    0.3635 C.ar        1 O2N       0.0376
     17 C17       -18.8367   49.7055   -3.1890 C.ar        1 O2N      -0.0192
     18 C18       -16.6282   50.6695   -3.6690 C.ar        1 O2N      -0.0192
     19 C19       -15.6615   45.2710   -3.2944 C.ar        1 O2N       0.0220
     20 C20       -11.6999   46.3027   -1.0478 C.ar        1 O2N      -0.0032
     21 C21        -9.3355   47.5328   -0.0978 C.ar        1 O2N       0.1200
     22 C22       -10.2815   47.0663    0.7984 C.ar        1 O2N       0.1327
     23 C23       -21.6718   49.8505   -3.3881 C.ar        1 O2N       0.0839
     24 C24       -15.1653   52.8098   -4.8479 C.ar        1 O2N       0.0839
     25 C25       -13.4291   49.1225    0.8950 C.2         1 O2N      -0.1125
     26 C26       -13.5515   48.4475   -0.2540 C.2         1 O2N      -0.0447
     27 C27       -17.3128   47.0844   -3.5549 C.2         1 O2N       0.2037
     28 C28       -12.4019   46.0265    1.3612 C.2         1 O2N       0.0515
     29 C29        -8.7128   48.1134    1.8845 C.3         1 O2N       0.1864
     30 C30       -23.7075   48.7428   -3.0252 C.3         1 O2N       0.0579
     31 C31       -13.0606   53.6372   -5.4809 C.3         1 O2N       0.0579
     32 C32       -15.4325   45.5264   -1.8398 C.3         1 O2N       0.0086
     33 C33       -12.9432   45.7063   -1.6408 C.3         1 O2N       0.0003
     34 C34       -14.5332   47.3934   -0.4480 C.3         1 O2N      -0.0011
     35 C35       -17.3563   49.5325   -3.0252 C.3         1 O2N       0.0982
     36 N36       -16.7697   48.2883   -3.4448 N.am        1 O2N      -0.2653
     37 N37       -14.2620   46.4559   -1.5935 N.4         1 O2N       0.2715
     38 O38       -13.2106   44.9559    1.2235 O.co2       1 O2N      -0.5668
     39 O39       -18.4663   46.8392   -3.2255 O.2         1 O2N      -0.3883
     40 O40       -12.5719   46.7618    2.4871 O.co2       1 O2N      -0.5668
     41 O41        -8.2830   48.1078    0.5128 O.3         1 O2N      -0.2947
     42 O42        -9.8929   47.3137    2.0693 O.3         1 O2N      -0.2890
     43 O43       -23.0361   49.9285   -3.4825 O.3         1 O2N      -0.3255
     44 O44       -14.4808   53.8531   -5.4071 O.3         1 O2N      -0.3255
     45 H1        -16.0304   44.5821   -7.0643 H           1 O2N       0.0572
     46 H2        -14.6007   43.1794   -5.7308 H           1 O2N       0.0635
     47 H3        -17.2912   46.3654   -6.0601 H           1 O2N       0.0651
     48 H4        -14.3505   43.5939   -3.3739 H           1 O2N       0.0570
     49 H5        -10.8153   46.6817   -2.9537 H           1 O2N       0.0445
     50 H6        -18.9801   48.8752   -5.1382 H           1 O2N       0.0534
     51 H7        -19.1638   50.6358   -1.3064 H           1 O2N       0.0534
     52 H8        -16.6147   51.9227   -1.9518 H           1 O2N       0.0534
     53 H9        -16.4272   49.7908   -5.5956 H           1 O2N       0.0534
     54 H10        -8.8136   47.7279   -2.1326 H           1 O2N       0.0514
     55 H11       -21.3789   48.9731   -5.2902 H           1 O2N       0.0526
     56 H12       -21.5538   50.7837   -1.4942 H           1 O2N       0.0526
     57 H13       -15.3920   53.7311   -2.9590 H           1 O2N       0.0526
     58 H14       -15.1995   51.6022   -6.5841 H           1 O2N       0.0526
     59 H15       -12.7178   49.8072    1.0023 H           1 O2N       0.0292
     60 H16       -14.0366   48.9500    1.6593 H           1 O2N       0.0292
     61 H17       -12.9608   48.6968   -1.0190 H           1 O2N       0.0725
     62 H18        -8.9236   49.1402    2.1980 H           1 O2N       0.0973
     63 H19        -7.9106   47.7219    2.5122 H           1 O2N       0.0973
     64 H20       -24.7815   48.8938   -3.1392 H           1 O2N       0.0575
     65 H21       -23.5018   48.5477   -1.9693 H           1 O2N       0.0575
     66 H22       -23.4231   47.8698   -3.6187 H           1 O2N       0.0575
     67 H23       -12.6012   54.5383   -5.8889 H           1 O2N       0.0575
     68 H24       -12.8198   52.8038   -6.1454 H           1 O2N       0.0575
     69 H25       -12.6287   53.4509   -4.4942 H           1 O2N       0.0575
     70 H26       -15.3105   44.5730   -1.3166 H           1 O2N       0.0995
     71 H27       -16.3579   45.9226   -1.4174 H           1 O2N       0.0995
     72 H28       -13.0403   44.7015   -1.2277 H           1 O2N       0.0966
     73 H29       -12.7592   45.5306   -2.7032 H           1 O2N       0.0966
     74 H30       -15.4574   47.9427   -0.6477 H           1 O2N       0.0998
     75 H31       -14.6961   46.8170    0.4697 H           1 O2N       0.0998
     76 H32       -17.1232   49.5606   -1.9559 H           1 O2N       0.0837
     77 H33       -15.8253   48.3310   -3.6564 H           1 O2N       0.1893
     78 H34       -14.2333   47.0750   -2.4071 H           1 O2N       0.2082
@<TRIPOS>BOND
     1     1     2  ar
     2     3     1  ar
     3     4     2  ar
     4    15     3  ar
     5    19     4  ar
     6     5    10  ar
     7    20     5  ar
     8     6    11  ar
     9    17     6  ar
    10     7    12  ar
    11    17     7  ar
    12     8    13  ar
    13    18     8  ar
    14     9    14  ar
    15    18     9  ar
    16    10    21  ar
    17    11    23  ar
    18    12    23  ar
    19    13    24  ar
    20    14    24  ar
    21    15    19  ar
    22    27    15   1
    23    20    16  ar
    24    16    22  ar
    25    16    28   1
    26    35    17   1
    27    35    18   1
    28    19    32   1
    29    33    20   1
    30    22    21  ar
    31    21    41   1
    32    22    42   1
    33    23    43   1
    34    24    44   1
    35    26    25   2
    36    34    26   1
    37    36    27  am
    38    27    39   2
    39    28    38  ar
    40    28    40  ar
    41    29    41   1
    42    42    29   1
    43    43    30   1
    44    44    31   1
    45    32    37   1
    46    37    33   1
    47    37    34   1
    48    35    36   1
    49     1    45   1
    50     2    46   1
    51     3    47   1
    52     4    48   1
    53     5    49   1
    54     6    50   1
    55     7    51   1
    56     8    52   1
    57     9    53   1
    58    10    54   1
    59    11    55   1
    60    12    56   1
    61    13    57   1
    62    14    58   1
    63    25    59   1
    64    25    60   1
    65    26    61   1
    66    29    62   1
    67    29    63   1
    68    30    64   1
    69    30    65   1
    70    30    66   1
    71    31    67   1
    72    31    68   1
    73    31    69   1
    74    32    70   1
    75    32    71   1
    76    33    72   1
    77    33    73   1
    78    34    74   1
    79    34    75   1
    80    35    76   1
    81    36    77   1
    82    37    78   1
@<TRIPOS>SUBSTRUCTURE
     1  O2N      1

