@<TRIPOS>MOLECULE
3zso_ligand_047
    78    82
SMALL
GAST_HUCK
****
This file was generated by PARSER (from files_GN.cpp)

@<TRIPOS>ATOM
      1 C1        -16.1175   43.4590   -5.6515 C.ar        1 O2N      -0.0630
      2 C2        -16.6562   43.1425   -4.3996 C.ar        1 O2N      -0.0640
      3 C3        -15.7409   44.7809   -5.9376 C.ar        1 O2N      -0.0483
      4 C4        -16.7568   44.1368   -3.4114 C.ar        1 O2N      -0.0493
      5 C5        -12.0005   45.1630   -2.1793 C.ar        1 O2N      -0.0712
      6 C6        -19.1994   49.9040   -5.5601 C.ar        1 O2N      -0.0648
      7 C7        -17.4493   50.8072   -4.1329 C.ar        1 O2N      -0.0648
      8 C8        -16.8666   48.1870   -8.3481 C.ar        1 O2N      -0.0648
      9 C9        -17.2103   50.5803   -8.1538 C.ar        1 O2N      -0.0648
     10 C10       -10.6083   45.1177   -1.9722 C.ar        1 O2N      -0.0449
     11 C11       -20.1670   50.6026   -4.8171 C.ar        1 O2N      -0.0392
     12 C12       -18.4159   51.4936   -3.3786 C.ar        1 O2N      -0.0392
     13 C13       -17.0255   48.2765   -9.7417 C.ar        1 O2N      -0.0392
     14 C14       -17.3856   50.6692   -9.5486 C.ar        1 O2N      -0.0392
     15 C15       -15.9162   45.8146   -4.9878 C.ar        1 O2N       0.0566
     16 C16       -12.3763   45.6109    0.2063 C.ar        1 O2N       0.0376
     17 C17       -17.8236   50.0100   -5.2432 C.ar        1 O2N      -0.0192
     18 C18       -16.9702   49.3341   -7.5148 C.ar        1 O2N      -0.0192
     19 C19       -16.3780   45.4811   -3.6765 C.ar        1 O2N       0.0220
     20 C20       -12.9060   45.3793   -1.1055 C.ar        1 O2N      -0.0032
     21 C21       -10.1080   45.3235   -0.6782 C.ar        1 O2N       0.1200
     22 C22       -10.9694   45.5750    0.3817 C.ar        1 O2N       0.1327
     23 C23       -19.7820   51.3968   -3.7149 C.ar        1 O2N       0.0839
     24 C24       -17.3143   49.5135  -10.3543 C.ar        1 O2N       0.0839
     25 C25       -13.4540   49.1476    0.4003 C.2         1 O2N      -0.1125
     26 C26       -13.6825   48.3556   -0.6582 C.2         1 O2N      -0.0447
     27 C27       -15.7129   47.1188   -5.4069 C.2         1 O2N       0.2037
     28 C28       -13.1644   45.9444    1.3367 C.2         1 O2N       0.0515
     29 C29        -8.9142   45.7674    1.0552 C.3         1 O2N       0.1864
     30 C30       -21.3128   51.4246   -1.9270 C.3         1 O2N       0.0579
     31 C31       -18.5956   49.0105  -12.2854 C.3         1 O2N       0.0579
     32 C32       -16.3507   46.4392   -2.5261 C.3         1 O2N       0.0086
     33 C33       -14.3698   45.3458   -1.4438 C.3         1 O2N       0.0003
     34 C34       -14.9748   47.7244   -0.8935 C.3         1 O2N      -0.0011
     35 C35       -16.7852   49.2735   -6.0210 C.3         1 O2N       0.0982
     36 N36       -16.7548   47.9470   -5.4520 N.am        1 O2N      -0.2653
     37 N37       -14.9696   46.6409   -1.9429 N.4         1 O2N       0.2715
     38 O38       -14.2545   45.2253    1.6930 O.co2       1 O2N      -0.5668
     39 O39       -14.6694   47.4063   -5.9827 O.2         1 O2N      -0.3883
     40 O40       -12.7453   46.8983    2.1993 O.co2       1 O2N      -0.5668
     41 O41        -8.8147   45.2956   -0.3016 O.3         1 O2N      -0.2947
     42 O42       -10.2769   45.7227    1.5281 O.3         1 O2N      -0.2890
     43 O43       -20.7146   52.1348   -3.0258 O.3         1 O2N      -0.3255
     44 O44       -17.4282   49.6331  -11.7175 O.3         1 O2N      -0.3255
     45 H1        -16.0141   42.7259   -6.3587 H           1 O2N       0.0572
     46 H2        -16.9515   42.1864   -4.1903 H           1 O2N       0.0635
     47 H3        -15.3694   44.9814   -6.8648 H           1 O2N       0.0651
     48 H4        -17.0860   43.8647   -2.4780 H           1 O2N       0.0570
     49 H5        -12.3503   45.0116   -3.1305 H           1 O2N       0.0445
     50 H6        -19.5071   49.3332   -6.3469 H           1 O2N       0.0534
     51 H7        -16.4702   50.8896   -3.8597 H           1 O2N       0.0534
     52 H8        -16.6537   47.2776   -7.9455 H           1 O2N       0.0534
     53 H9        -17.2726   51.4394   -7.6020 H           1 O2N       0.0534
     54 H10        -9.9710   44.9322   -2.7496 H           1 O2N       0.0514
     55 H11       -21.1571   50.5402   -5.0771 H           1 O2N       0.0526
     56 H12       -18.1275   52.0742   -2.5837 H           1 O2N       0.0526
     57 H13       -16.9310   47.4335  -10.3106 H           1 O2N       0.0526
     58 H14       -17.5595   51.5817   -9.9832 H           1 O2N       0.0526
     59 H15       -12.5625   49.5696    0.5281 H           1 O2N       0.0292
     60 H16       -14.1657   49.3383    1.0664 H           1 O2N       0.0292
     61 H17       -12.9400   48.2101   -1.3034 H           1 O2N       0.0725
     62 H18        -8.5519   46.8002    1.1017 H           1 O2N       0.0973
     63 H19        -8.2780   45.1544    1.6978 H           1 O2N       0.0973
     64 H20       -22.0190   52.0967   -1.4444 H           1 O2N       0.0575
     65 H21       -20.5659   51.1242   -1.1881 H           1 O2N       0.0575
     66 H22       -21.8596   50.5447   -2.2743 H           1 O2N       0.0575
     67 H23       -18.6080   49.2188  -13.3533 H           1 O2N       0.0575
     68 H24       -19.5127   49.4075  -11.8485 H           1 O2N       0.0575
     69 H25       -18.5695   47.9281  -12.1553 H           1 O2N       0.0575
     70 H26       -17.0201   46.0977   -1.7279 H           1 O2N       0.0995
     71 H27       -16.7687   47.3875   -2.8787 H           1 O2N       0.0995
     72 H28       -14.9676   45.0123   -0.6008 H           1 O2N       0.0966
     73 H29       -14.4854   44.5576   -2.1926 H           1 O2N       0.0966
     74 H30       -15.6337   48.5453   -1.1942 H           1 O2N       0.0998
     75 H31       -15.3610   47.3164    0.0476 H           1 O2N       0.0998
     76 H32       -15.8114   49.7512   -5.8400 H           1 O2N       0.0837
     77 H33       -17.5950   47.6121   -5.0950 H           1 O2N       0.1893
     78 H34       -14.3934   46.9996   -2.7061 H           1 O2N       0.2082
@<TRIPOS>BOND
     1     1     2  ar
     2     3     1  ar
     3     4     2  ar
     4    15     3  ar
     5    19     4  ar
     6     5    10  ar
     7    20     5  ar
     8     6    11  ar
     9    17     6  ar
    10     7    12  ar
    11    17     7  ar
    12     8    13  ar
    13    18     8  ar
    14     9    14  ar
    15    18     9  ar
    16    10    21  ar
    17    11    23  ar
    18    12    23  ar
    19    13    24  ar
    20    14    24  ar
    21    15    19  ar
    22    27    15   1
    23    20    16  ar
    24    16    22  ar
    25    16    28   1
    26    35    17   1
    27    35    18   1
    28    19    32   1
    29    33    20   1
    30    22    21  ar
    31    21    41   1
    32    22    42   1
    33    23    43   1
    34    24    44   1
    35    26    25   2
    36    34    26   1
    37    36    27  am
    38    27    39   2
    39    28    38  ar
    40    28    40  ar
    41    29    41   1
    42    42    29   1
    43    43    30   1
    44    44    31   1
    45    32    37   1
    46    37    33   1
    47    37    34   1
    48    35    36   1
    49     1    45   1
    50     2    46   1
    51     3    47   1
    52     4    48   1
    53     5    49   1
    54     6    50   1
    55     7    51   1
    56     8    52   1
    57     9    53   1
    58    10    54   1
    59    11    55   1
    60    12    56   1
    61    13    57   1
    62    14    58   1
    63    25    59   1
    64    25    60   1
    65    26    61   1
    66    29    62   1
    67    29    63   1
    68    30    64   1
    69    30    65   1
    70    30    66   1
    71    31    67   1
    72    31    68   1
    73    31    69   1
    74    32    70   1
    75    32    71   1
    76    33    72   1
    77    33    73   1
    78    34    74   1
    79    34    75   1
    80    35    76   1
    81    36    77   1
    82    37    78   1
@<TRIPOS>SUBSTRUCTURE
     1  O2N      1

