@<TRIPOS>MOLECULE
3zso_ligand_073
    78    82
SMALL
GAST_HUCK
****
This file was generated by PARSER (from files_GN.cpp)

@<TRIPOS>ATOM
      1 C1        -18.0959   44.6426   -6.0366 C.ar        1 O2N      -0.0630
      2 C2        -17.2394   43.6599   -5.5204 C.ar        1 O2N      -0.0640
      3 C3        -17.7981   46.0022   -5.8543 C.ar        1 O2N      -0.0483
      4 C4        -16.0866   44.0401   -4.8177 C.ar        1 O2N      -0.0493
      5 C5        -11.8216   45.4174   -2.0994 C.ar        1 O2N      -0.0712
      6 C6        -17.2368   51.1053   -1.7762 C.ar        1 O2N      -0.0648
      7 C7        -19.1853   50.0925   -2.8094 C.ar        1 O2N      -0.0648
      8 C8        -15.9573   51.1783   -6.0052 C.ar        1 O2N      -0.0648
      9 C9        -18.3619   51.2334   -5.7586 C.ar        1 O2N      -0.0648
     10 C10       -10.7507   44.5397   -1.8433 C.ar        1 O2N      -0.0449
     11 C11       -18.0342   51.5413   -0.7024 C.ar        1 O2N      -0.0392
     12 C12       -19.9906   50.5555   -1.7573 C.ar        1 O2N      -0.0392
     13 C13       -16.0614   51.9239   -7.1960 C.ar        1 O2N      -0.0392
     14 C14       -18.4662   52.0175   -6.9221 C.ar        1 O2N      -0.0392
     15 C15       -16.6420   46.4072   -5.1402 C.ar        1 O2N       0.0566
     16 C16       -12.4763   45.3631    0.2564 C.ar        1 O2N       0.0376
     17 C17       -17.7989   50.3922   -2.8653 C.ar        1 O2N      -0.0192
     18 C18       -17.1053   50.8018   -5.2598 C.ar        1 O2N      -0.0192
     19 C19       -15.7851   45.4101   -4.5834 C.ar        1 O2N       0.0220
     20 C20       -12.7382   45.8022   -1.0813 C.ar        1 O2N      -0.0032
     21 C21       -10.5573   44.0743   -0.5367 C.ar        1 O2N       0.1200
     22 C22       -11.3874   44.4939    0.4924 C.ar        1 O2N       0.1327
     23 C23       -19.4233   51.3046   -0.7085 C.ar        1 O2N       0.0839
     24 C24       -17.3179   52.3433   -7.6693 C.ar        1 O2N       0.0839
     25 C25       -17.9714   45.3989   -2.3369 C.2         1 O2N      -0.1125
     26 C26       -17.0153   44.5530   -1.9282 C.2         1 O2N      -0.0447
     27 C27       -16.3855   47.7667   -5.0478 C.2         1 O2N       0.2037
     28 C28       -13.2171   45.7974    1.3730 C.2         1 O2N       0.0515
     29 C29        -9.7841   43.2840    1.3161 C.3         1 O2N       0.1864
     30 C30       -20.1990   53.1439    0.5336 C.3         1 O2N       0.0579
     31 C31       -17.6852   52.3487   -9.9930 C.3         1 O2N       0.0579
     32 C32       -14.6401   45.7243   -3.6729 C.3         1 O2N       0.0086
     33 C33       -13.8969   46.6873   -1.4549 C.3         1 O2N       0.0003
     34 C34       -15.6979   44.9756   -1.4846 C.3         1 O2N      -0.0011
     35 C35       -16.9530   49.9495   -4.0243 C.3         1 O2N       0.0982
     36 N36       -17.1540   48.5454   -4.2946 N.am        1 O2N      -0.2653
     37 N37       -15.0243   46.0746   -2.2584 N.4         1 O2N       0.2715
     38 O38       -12.6288   46.5934    2.2943 O.co2       1 O2N      -0.5668
     39 O39       -15.4397   48.2291   -5.6755 O.2         1 O2N      -0.3883
     40 O40       -14.3696   45.1848    1.7143 O.co2       1 O2N      -0.5668
     41 O41        -9.5939   43.2419   -0.1089 O.3         1 O2N      -0.2947
     42 O42       -11.0093   43.9506    1.6685 O.3         1 O2N      -0.2890
     43 O43       -20.2161   51.7193    0.3250 O.3         1 O2N      -0.3255
     44 O44       -17.3945   53.1058   -8.8038 O.3         1 O2N      -0.3255
     45 H1        -18.9259   44.3628   -6.5688 H           1 O2N       0.0572
     46 H2        -17.4513   42.6654   -5.6691 H           1 O2N       0.0635
     47 H3        -18.4353   46.6913   -6.2572 H           1 O2N       0.0651
     48 H4        -15.4944   43.3000   -4.4303 H           1 O2N       0.0570
     49 H5        -11.9165   45.7855   -3.0501 H           1 O2N       0.0445
     50 H6        -16.2337   51.3117   -1.7544 H           1 O2N       0.0534
     51 H7        -19.6235   49.5356   -3.5489 H           1 O2N       0.0534
     52 H8        -15.0229   50.8868   -5.6998 H           1 O2N       0.0534
     53 H9        -19.2263   50.9930   -5.2748 H           1 O2N       0.0534
     54 H10       -10.1196   44.2499   -2.5954 H           1 O2N       0.0514
     55 H11       -17.6024   52.0327    0.0832 H           1 O2N       0.0526
     56 H12       -20.9906   50.3418   -1.7592 H           1 O2N       0.0526
     57 H13       -15.2157   52.1596   -7.7203 H           1 O2N       0.0526
     58 H14       -19.3871   52.3400   -7.2278 H           1 O2N       0.0526
     59 H15       -18.8544   45.0555   -2.6233 H           1 O2N       0.0292
     60 H16       -17.7921   46.3711   -2.4021 H           1 O2N       0.0292
     61 H17       -17.2274   43.5853   -1.9027 H           1 O2N       0.0725
     62 H18        -8.9454   43.8105    1.7764 H           1 O2N       0.0973
     63 H19        -9.8047   42.2670    1.7061 H           1 O2N       0.0973
     64 H20       -20.8771   53.3720    1.3562 H           1 O2N       0.0575
     65 H21       -20.5433   53.6824   -0.3534 H           1 O2N       0.0575
     66 H22       -19.2013   53.4961    0.8098 H           1 O2N       0.0575
     67 H23       -17.6994   53.0288  -10.8455 H           1 O2N       0.0575
     68 H24       -18.6673   51.8759   -9.9222 H           1 O2N       0.0575
     69 H25       -16.9250   51.5857  -10.1804 H           1 O2N       0.0575
     70 H26       -14.0954   46.5560   -4.1208 H           1 O2N       0.0995
     71 H27       -13.9401   44.8862   -3.6506 H           1 O2N       0.0995
     72 H28       -13.4989   47.5499   -1.9941 H           1 O2N       0.0966
     73 H29       -14.3353   47.1169   -0.5560 H           1 O2N       0.0966
     74 H30       -15.0426   44.1024   -1.4666 H           1 O2N       0.0998
     75 H31       -15.8399   45.2885   -0.4498 H           1 O2N       0.0998
     76 H32       -15.9142   50.0355   -3.6866 H           1 O2N       0.0837
     77 H33       -17.8651   48.1002   -3.8065 H           1 O2N       0.1893
     78 H34       -15.7218   46.8204   -2.3467 H           1 O2N       0.2082
@<TRIPOS>BOND
     1     1     2  ar
     2     3     1  ar
     3     4     2  ar
     4    15     3  ar
     5    19     4  ar
     6     5    10  ar
     7    20     5  ar
     8     6    11  ar
     9    17     6  ar
    10     7    12  ar
    11    17     7  ar
    12     8    13  ar
    13    18     8  ar
    14     9    14  ar
    15    18     9  ar
    16    10    21  ar
    17    11    23  ar
    18    12    23  ar
    19    13    24  ar
    20    14    24  ar
    21    15    19  ar
    22    27    15   1
    23    20    16  ar
    24    16    22  ar
    25    16    28   1
    26    35    17   1
    27    35    18   1
    28    19    32   1
    29    33    20   1
    30    22    21  ar
    31    21    41   1
    32    22    42   1
    33    23    43   1
    34    24    44   1
    35    26    25   2
    36    34    26   1
    37    36    27  am
    38    27    39   2
    39    28    38  ar
    40    28    40  ar
    41    29    41   1
    42    42    29   1
    43    43    30   1
    44    44    31   1
    45    32    37   1
    46    37    33   1
    47    37    34   1
    48    35    36   1
    49     1    45   1
    50     2    46   1
    51     3    47   1
    52     4    48   1
    53     5    49   1
    54     6    50   1
    55     7    51   1
    56     8    52   1
    57     9    53   1
    58    10    54   1
    59    11    55   1
    60    12    56   1
    61    13    57   1
    62    14    58   1
    63    25    59   1
    64    25    60   1
    65    26    61   1
    66    29    62   1
    67    29    63   1
    68    30    64   1
    69    30    65   1
    70    30    66   1
    71    31    67   1
    72    31    68   1
    73    31    69   1
    74    32    70   1
    75    32    71   1
    76    33    72   1
    77    33    73   1
    78    34    74   1
    79    34    75   1
    80    35    76   1
    81    36    77   1
    82    37    78   1
@<TRIPOS>SUBSTRUCTURE
     1  O2N      1

