@<TRIPOS>MOLECULE
3zso_ligand_069
    78    82
SMALL
GAST_HUCK
****
This file was generated by PARSER (from files_GN.cpp)

@<TRIPOS>ATOM
      1 C1        -21.7371   48.7098   -0.2813 C.ar        1 O2N      -0.0630
      2 C2        -21.8929   50.0277   -0.7224 C.ar        1 O2N      -0.0640
      3 C3        -20.9748   47.8108   -1.0373 C.ar        1 O2N      -0.0483
      4 C4        -21.2323   50.4534   -1.8814 C.ar        1 O2N      -0.0493
      5 C5        -17.7515   51.2959   -6.5399 C.ar        1 O2N      -0.0712
      6 C6        -16.2118   44.2794   -3.1846 C.ar        1 O2N      -0.0648
      7 C7        -15.7733   46.4828   -2.2681 C.ar        1 O2N      -0.0648
      8 C8        -18.1984   47.4657   -6.0870 C.ar        1 O2N      -0.0648
      9 C9        -15.9250   46.6514   -5.8498 C.ar        1 O2N      -0.0648
     10 C10       -16.7902   50.8897   -7.4879 C.ar        1 O2N      -0.0449
     11 C11       -15.1496   43.7574   -2.4318 C.ar        1 O2N      -0.0392
     12 C12       -14.6989   45.9626   -1.5270 C.ar        1 O2N      -0.0392
     13 C13       -17.8887   47.9717   -7.3597 C.ar        1 O2N      -0.0392
     14 C14       -15.6274   47.1185   -7.1416 C.ar        1 O2N      -0.0392
     15 C15       -20.3128   48.2127   -2.2282 C.ar        1 O2N       0.0566
     16 C16       -16.0099   52.3785   -5.1878 C.ar        1 O2N       0.0376
     17 C17       -16.5452   45.6559   -3.1224 C.ar        1 O2N      -0.0192
     18 C18       -17.2247   46.8008   -5.2947 C.ar        1 O2N      -0.0192
     19 C19       -20.3927   49.5864   -2.6312 C.ar        1 O2N       0.0220
     20 C20       -17.3899   52.0302   -5.3782 C.ar        1 O2N      -0.0032
     21 C21       -15.4453   51.2002   -7.2562 C.ar        1 O2N       0.1200
     22 C22       -15.0588   51.9105   -6.1310 C.ar        1 O2N       0.1327
     23 C23       -14.3740   44.5926   -1.5960 C.ar        1 O2N       0.0839
     24 C24       -16.6001   47.7846   -7.9167 C.ar        1 O2N       0.0839
     25 C25       -18.1706   51.8830   -0.2636 C.2         1 O2N      -0.1125
     26 C26       -17.4241   51.8821   -1.3862 C.2         1 O2N      -0.0447
     27 C27       -19.6894   47.2035   -2.9640 C.2         1 O2N       0.2037
     28 C28       -15.5384   53.1496   -4.0956 C.2         1 O2N       0.0515
     29 C29       -13.2914   51.2341   -7.1883 C.3         1 O2N       0.1864
     30 C30       -12.5733   43.0038   -1.2302 C.3         1 O2N       0.0579
     31 C31       -17.1615   48.2414  -10.2272 C.3         1 O2N       0.0579
     32 C32       -19.6742   50.2108   -3.7958 C.3         1 O2N       0.0086
     33 C33       -18.4831   52.3771   -4.4061 C.3         1 O2N       0.0003
     34 C34       -17.6427   50.9455   -2.4774 C.3         1 O2N      -0.0011
     35 C35       -17.6413   46.2240   -3.9781 C.3         1 O2N       0.0982
     36 N36       -18.3880   47.2122   -3.2316 N.am        1 O2N      -0.2653
     37 N37       -18.8039   51.3596   -3.3438 N.4         1 O2N       0.2715
     38 O38       -15.9667   54.4171   -3.8922 O.co2       1 O2N      -0.5668
     39 O39       -20.3753   46.2491   -3.3225 O.2         1 O2N      -0.3883
     40 O40       -14.4620   52.7498   -3.3770 O.co2       1 O2N      -0.5668
     41 O41       -14.3989   50.8898   -8.0417 O.3         1 O2N      -0.2947
     42 O42       -13.7224   52.1031   -6.1275 O.3         1 O2N      -0.2890
     43 O43       -13.3169   44.1674   -0.8240 O.3         1 O2N      -0.3255
     44 O44       -16.2016   48.2332   -9.1536 O.3         1 O2N      -0.3255
     45 H1        -22.2053   48.3962    0.5717 H           1 O2N       0.0572
     46 H2        -22.4762   50.6774   -0.1915 H           1 O2N       0.0635
     47 H3        -20.9019   46.8427   -0.7041 H           1 O2N       0.0651
     48 H4        -21.3816   51.4192   -2.1813 H           1 O2N       0.0570
     49 H5        -18.7256   51.0281   -6.6978 H           1 O2N       0.0445
     50 H6        -16.7215   43.6453   -3.8054 H           1 O2N       0.0534
     51 H7        -15.9801   47.4827   -2.2027 H           1 O2N       0.0534
     52 H8        -19.1493   47.5979   -5.7327 H           1 O2N       0.0534
     53 H9        -15.1809   46.1663   -5.3416 H           1 O2N       0.0534
     54 H10       -17.0688   50.3911   -8.3338 H           1 O2N       0.0514
     55 H11       -14.9504   42.7601   -2.4944 H           1 O2N       0.0526
     56 H12       -14.1616   46.5880   -0.9194 H           1 O2N       0.0526
     57 H13       -18.6180   48.4570   -7.8892 H           1 O2N       0.0526
     58 H14       -14.6807   46.9916   -7.5162 H           1 O2N       0.0526
     59 H15       -17.9913   52.5503    0.4544 H           1 O2N       0.0292
     60 H16       -18.9209   51.2356   -0.1423 H           1 O2N       0.0292
     61 H17       -16.6649   52.5258   -1.4401 H           1 O2N       0.0725
     62 H18       -12.5100   51.7312   -7.7679 H           1 O2N       0.0973
     63 H19       -12.8669   50.3230   -6.7537 H           1 O2N       0.0973
     64 H20       -11.6612   42.9499   -0.6399 H           1 O2N       0.0575
     65 H21       -12.3007   43.0564   -2.2885 H           1 O2N       0.0575
     66 H22       -13.1563   42.0981   -1.0450 H           1 O2N       0.0575
     67 H23       -16.6108   48.3992  -11.1550 H           1 O2N       0.0575
     68 H24       -17.8704   49.0633  -10.0905 H           1 O2N       0.0575
     69 H25       -17.7052   47.2933  -10.3006 H           1 O2N       0.0575
     70 H26       -20.4541   50.5669   -4.4770 H           1 O2N       0.0995
     71 H27       -19.0739   49.5029   -4.3641 H           1 O2N       0.0995
     72 H28       -19.3954   52.6047   -4.9717 H           1 O2N       0.0966
     73 H29       -18.2601   53.3120   -3.8914 H           1 O2N       0.0966
     74 H30       -17.8286   49.9653   -2.0242 H           1 O2N       0.0998
     75 H31       -16.7304   50.8513   -3.0793 H           1 O2N       0.0998
     76 H32       -18.2952   45.3872   -4.2493 H           1 O2N       0.0837
     77 H33       -17.8829   47.9717   -2.9038 H           1 O2N       0.1893
     78 H34       -19.4121   51.8846   -2.7166 H           1 O2N       0.2082
@<TRIPOS>BOND
     1     1     2  ar
     2     3     1  ar
     3     4     2  ar
     4    15     3  ar
     5    19     4  ar
     6     5    10  ar
     7    20     5  ar
     8     6    11  ar
     9    17     6  ar
    10     7    12  ar
    11    17     7  ar
    12     8    13  ar
    13    18     8  ar
    14     9    14  ar
    15    18     9  ar
    16    10    21  ar
    17    11    23  ar
    18    12    23  ar
    19    13    24  ar
    20    14    24  ar
    21    15    19  ar
    22    27    15   1
    23    20    16  ar
    24    16    22  ar
    25    16    28   1
    26    35    17   1
    27    35    18   1
    28    19    32   1
    29    33    20   1
    30    22    21  ar
    31    21    41   1
    32    22    42   1
    33    23    43   1
    34    24    44   1
    35    26    25   2
    36    34    26   1
    37    36    27  am
    38    27    39   2
    39    28    38  ar
    40    28    40  ar
    41    29    41   1
    42    42    29   1
    43    43    30   1
    44    44    31   1
    45    32    37   1
    46    37    33   1
    47    37    34   1
    48    35    36   1
    49     1    45   1
    50     2    46   1
    51     3    47   1
    52     4    48   1
    53     5    49   1
    54     6    50   1
    55     7    51   1
    56     8    52   1
    57     9    53   1
    58    10    54   1
    59    11    55   1
    60    12    56   1
    61    13    57   1
    62    14    58   1
    63    25    59   1
    64    25    60   1
    65    26    61   1
    66    29    62   1
    67    29    63   1
    68    30    64   1
    69    30    65   1
    70    30    66   1
    71    31    67   1
    72    31    68   1
    73    31    69   1
    74    32    70   1
    75    32    71   1
    76    33    72   1
    77    33    73   1
    78    34    74   1
    79    34    75   1
    80    35    76   1
    81    36    77   1
    82    37    78   1
@<TRIPOS>SUBSTRUCTURE
     1  O2N      1

