@<TRIPOS>MOLECULE
3zso_ligand_036
    78    82
SMALL
GAST_HUCK
****
This file was generated by PARSER (from files_GN.cpp)

@<TRIPOS>ATOM
      1 C1        -22.4539   46.1194   -2.9556 C.ar        1 O2N      -0.0630
      2 C2        -23.2149   45.8446   -4.0988 C.ar        1 O2N      -0.0640
      3 C3        -21.0521   46.0969   -3.0298 C.ar        1 O2N      -0.0483
      4 C4        -22.5725   45.5757   -5.3186 C.ar        1 O2N      -0.0493
      5 C5        -18.2633   48.7526   -8.4995 C.ar        1 O2N      -0.0712
      6 C6        -16.2684   49.1217   -4.7298 C.ar        1 O2N      -0.0648
      7 C7        -16.1276   47.0152   -5.9227 C.ar        1 O2N      -0.0648
      8 C8        -14.7942   45.5412   -3.4557 C.ar        1 O2N      -0.0648
      9 C9        -16.7480   44.8184   -2.2241 C.ar        1 O2N      -0.0648
     10 C10       -17.8145   49.7942   -9.3302 C.ar        1 O2N      -0.0449
     11 C11       -15.7549   49.7912   -5.8575 C.ar        1 O2N      -0.0392
     12 C12       -15.6161   47.6837   -7.0460 C.ar        1 O2N      -0.0392
     13 C13       -14.1131   44.3701   -3.0786 C.ar        1 O2N      -0.0392
     14 C14       -16.0818   43.6363   -1.8550 C.ar        1 O2N      -0.0392
     15 C15       -20.3808   45.8265   -4.2499 C.ar        1 O2N       0.0566
     16 C16       -19.9073   50.2503   -7.4477 C.ar        1 O2N       0.0376
     17 C17       -16.4316   47.7164   -4.7312 C.ar        1 O2N      -0.0192
     18 C18       -16.1382   45.7829   -3.0646 C.ar        1 O2N      -0.0192
     19 C19       -21.1577   45.5730   -5.4298 C.ar        1 O2N       0.0220
     20 C20       -19.3270   48.9474   -7.5760 C.ar        1 O2N      -0.0032
     21 C21       -18.4337   51.0463   -9.2333 C.ar        1 O2N       0.1200
     22 C22       -19.4544   51.2676   -8.3212 C.ar        1 O2N       0.1327
     23 C23       -15.4128   49.0766   -7.0307 C.ar        1 O2N       0.0839
     24 C24       -14.7533   43.4042   -2.2704 C.ar        1 O2N       0.0839
     25 C25       -22.0116   48.8097  -10.1300 C.2         1 O2N      -0.1125
     26 C26       -21.2123   47.8689   -9.6083 C.2         1 O2N      -0.0447
     27 C27       -18.9895   45.8239   -4.2279 C.2         1 O2N       0.2037
     28 C28       -20.9054   50.5838   -6.4987 C.2         1 O2N       0.0515
     29 C29       -19.2252   53.0203   -9.5692 C.3         1 O2N       0.1864
     30 C30       -14.8349   51.0239   -8.3930 C.3         1 O2N       0.0579
     31 C31       -12.7941   42.2117   -1.5485 C.3         1 O2N       0.0579
     32 C32       -20.5898   45.3887   -6.8113 C.3         1 O2N       0.0086
     33 C33       -19.7852   47.7492   -6.8088 C.3         1 O2N       0.0003
     34 C34       -21.5600   47.0282   -8.4701 C.3         1 O2N      -0.0011
     35 C35       -16.9083   46.9982   -3.4998 C.3         1 O2N       0.0982
     36 N36       -18.3285   46.8120   -3.6261 N.am        1 O2N      -0.2653
     37 N37       -20.3693   46.6334   -7.6313 N.4         1 O2N       0.2715
     38 O38       -22.0012   51.3009   -6.8482 O.co2       1 O2N      -0.5668
     39 O39       -18.3882   44.8585   -4.6813 O.2         1 O2N      -0.3883
     40 O40       -20.6712   50.4328   -5.1765 O.co2       1 O2N      -0.5668
     41 O41       -18.1397   52.1537   -9.9423 O.3         1 O2N      -0.2947
     42 O42       -19.8621   52.5541   -8.3685 O.3         1 O2N      -0.2890
     43 O43       -14.8603   49.6038   -8.1756 O.3         1 O2N      -0.3255
     44 O44       -14.1791   42.1995   -1.9413 O.3         1 O2N      -0.3255
     45 H1        -22.9155   46.3313   -2.0695 H           1 O2N       0.0572
     46 H2        -24.2367   45.8560   -4.0450 H           1 O2N       0.0635
     47 H3        -20.5248   46.2715   -2.1699 H           1 O2N       0.0651
     48 H4        -23.1641   45.3872   -6.1351 H           1 O2N       0.0570
     49 H5        -17.8190   47.8353   -8.5937 H           1 O2N       0.0445
     50 H6        -16.4940   49.6720   -3.8995 H           1 O2N       0.0534
     51 H7        -16.2309   45.9994   -5.9684 H           1 O2N       0.0534
     52 H8        -14.2832   46.2159   -4.0325 H           1 O2N       0.0534
     53 H9        -17.7051   44.9557   -1.8943 H           1 O2N       0.0534
     54 H10       -17.0546   49.6431   -9.9954 H           1 O2N       0.0514
     55 H11       -15.6195   50.8032   -5.8044 H           1 O2N       0.0526
     56 H12       -15.3765   47.1370   -7.8764 H           1 O2N       0.0526
     57 H13       -13.1575   44.2090   -3.4096 H           1 O2N       0.0526
     58 H14       -16.5783   42.9318   -1.2959 H           1 O2N       0.0526
     59 H15       -21.7049   49.3526  -10.9028 H           1 O2N       0.0292
     60 H16       -22.9100   48.9937   -9.7546 H           1 O2N       0.0292
     61 H17       -20.3277   47.7213  -10.0356 H           1 O2N       0.0725
     62 H18       -19.9615   53.0497  -10.3782 H           1 O2N       0.0973
     63 H19       -18.8492   54.0317   -9.4111 H           1 O2N       0.0973
     64 H20       -14.4957   51.2105   -9.4113 H           1 O2N       0.0575
     65 H21       -14.1341   51.5005   -7.7059 H           1 O2N       0.0575
     66 H22       -15.8282   51.4602   -8.2746 H           1 O2N       0.0575
     67 H23       -12.5399   41.2192   -1.1694 H           1 O2N       0.0575
     68 H24       -12.6048   42.9432   -0.7570 H           1 O2N       0.0575
     69 H25       -12.1435   42.4240   -2.4038 H           1 O2N       0.0575
     70 H26       -21.2275   44.6979   -7.3693 H           1 O2N       0.0995
     71 H27       -19.6357   44.8695   -6.7705 H           1 O2N       0.0995
     72 H28       -20.5153   48.0076   -6.0431 H           1 O2N       0.0966
     73 H29       -18.8996   47.3858   -6.2864 H           1 O2N       0.0966
     74 H30       -22.0248   46.1414   -8.9121 H           1 O2N       0.0998
     75 H31       -22.3199   47.5037   -7.8416 H           1 O2N       0.0998
     76 H32       -16.8044   47.6762   -2.6486 H           1 O2N       0.0837
     77 H33       -18.8730   47.5032   -3.2187 H           1 O2N       0.1893
     78 H34       -19.6293   46.3609   -8.2824 H           1 O2N       0.2082
@<TRIPOS>BOND
     1     1     2  ar
     2     3     1  ar
     3     4     2  ar
     4    15     3  ar
     5    19     4  ar
     6     5    10  ar
     7    20     5  ar
     8     6    11  ar
     9    17     6  ar
    10     7    12  ar
    11    17     7  ar
    12     8    13  ar
    13    18     8  ar
    14     9    14  ar
    15    18     9  ar
    16    10    21  ar
    17    11    23  ar
    18    12    23  ar
    19    13    24  ar
    20    14    24  ar
    21    15    19  ar
    22    27    15   1
    23    20    16  ar
    24    16    22  ar
    25    16    28   1
    26    35    17   1
    27    35    18   1
    28    19    32   1
    29    33    20   1
    30    22    21  ar
    31    21    41   1
    32    22    42   1
    33    23    43   1
    34    24    44   1
    35    26    25   2
    36    34    26   1
    37    36    27  am
    38    27    39   2
    39    28    38  ar
    40    28    40  ar
    41    29    41   1
    42    42    29   1
    43    43    30   1
    44    44    31   1
    45    32    37   1
    46    37    33   1
    47    37    34   1
    48    35    36   1
    49     1    45   1
    50     2    46   1
    51     3    47   1
    52     4    48   1
    53     5    49   1
    54     6    50   1
    55     7    51   1
    56     8    52   1
    57     9    53   1
    58    10    54   1
    59    11    55   1
    60    12    56   1
    61    13    57   1
    62    14    58   1
    63    25    59   1
    64    25    60   1
    65    26    61   1
    66    29    62   1
    67    29    63   1
    68    30    64   1
    69    30    65   1
    70    30    66   1
    71    31    67   1
    72    31    68   1
    73    31    69   1
    74    32    70   1
    75    32    71   1
    76    33    72   1
    77    33    73   1
    78    34    74   1
    79    34    75   1
    80    35    76   1
    81    36    77   1
    82    37    78   1
@<TRIPOS>SUBSTRUCTURE
     1  O2N      1

