@<TRIPOS>MOLECULE
3zso_ligand_086
    78    82
SMALL
GAST_HUCK
****
This file was generated by PARSER (from files_GN.cpp)

@<TRIPOS>ATOM
      1 C1        -24.2132   50.1460   -3.5267 C.ar        1 O2N      -0.0630
      2 C2        -23.7309   51.1380   -4.3936 C.ar        1 O2N      -0.0640
      3 C3        -23.3204   49.2248   -2.9580 C.ar        1 O2N      -0.0483
      4 C4        -22.3625   51.1891   -4.7063 C.ar        1 O2N      -0.0493
      5 C5        -17.7866   50.5982   -7.2785 C.ar        1 O2N      -0.0712
      6 C6        -21.8370   47.1033    0.3149 C.ar        1 O2N      -0.0648
      7 C7        -21.1813   44.7786    0.3813 C.ar        1 O2N      -0.0648
      8 C8        -18.5044   46.7041   -2.9379 C.ar        1 O2N      -0.0648
      9 C9        -18.4736   44.8946   -1.3393 C.ar        1 O2N      -0.0648
     10 C10       -16.7374   49.8594   -7.8495 C.ar        1 O2N      -0.0449
     11 C11       -22.3461   47.0031    1.6190 C.ar        1 O2N      -0.0392
     12 C12       -21.6403   44.6884    1.7098 C.ar        1 O2N      -0.0392
     13 C13       -17.1128   46.5902   -3.1026 C.ar        1 O2N      -0.0392
     14 C14       -17.0840   44.7561   -1.5216 C.ar        1 O2N      -0.0392
     15 C15       -21.9269   49.2831   -3.2358 C.ar        1 O2N       0.0566
     16 C16       -16.2012   51.8680   -5.9020 C.ar        1 O2N       0.0376
     17 C17       -21.2150   46.0032   -0.3445 C.ar        1 O2N      -0.0192
     18 C18       -19.2195   45.9103   -1.9965 C.ar        1 O2N      -0.0192
     19 C19       -21.4341   50.2805   -4.1357 C.ar        1 O2N       0.0220
     20 C20       -17.5566   51.5897   -6.2834 C.ar        1 O2N      -0.0032
     21 C21       -15.4285   50.1204   -7.4331 C.ar        1 O2N       0.1200
     22 C22       -15.1660   51.1002   -6.4896 C.ar        1 O2N       0.1327
     23 C23       -22.2175   45.8055    2.3473 C.ar        1 O2N       0.0839
     24 C24       -16.3838   45.6298   -2.3778 C.ar        1 O2N       0.0839
     25 C25       -20.0495   52.2798   -1.4959 C.2         1 O2N      -0.1125
     26 C26       -19.0601   51.5046   -1.9593 C.2         1 O2N      -0.0447
     27 C27       -21.1051   48.3902   -2.5687 C.2         1 O2N       0.2037
     28 C28       -15.8274   52.8858   -4.9941 C.2         1 O2N       0.0515
     29 C29       -13.2878   50.3452   -7.2975 C.3         1 O2N       0.1864
     30 C30       -22.1261   46.5598    4.5909 C.3         1 O2N       0.0579
     31 C31       -14.2394   46.1293   -1.5531 C.3         1 O2N       0.0579
     32 C32       -20.0318   50.3316   -4.6638 C.3         1 O2N       0.0086
     33 C33       -18.7587   52.2672   -5.6823 C.3         1 O2N       0.0003
     34 C34       -18.4231   51.7063   -3.2511 C.3         1 O2N      -0.0011
     35 C35       -20.7182   46.0469   -1.7793 C.3         1 O2N       0.0982
     36 N36       -21.3795   47.0845   -2.5406 N.am        1 O2N      -0.2653
     37 N37       -19.3477   51.6626   -4.4354 N.4         1 O2N       0.2715
     38 O38       -14.8669   52.6860   -4.0670 O.co2       1 O2N      -0.5668
     39 O39       -20.1719   48.8456   -1.9155 O.2         1 O2N      -0.3883
     40 O40       -16.2355   54.1633   -5.1768 O.co2       1 O2N      -0.5668
     41 O41       -14.3094   49.5128   -7.8769 O.3         1 O2N      -0.2947
     42 O42       -13.8354   51.2117   -6.2834 O.3         1 O2N      -0.2890
     43 O43       -22.7206   45.6787    3.6176 O.3         1 O2N      -0.3255
     44 O44       -15.0342   45.5052   -2.5773 O.3         1 O2N      -0.3255
     45 H1        -25.2126   50.0968   -3.3125 H           1 O2N       0.0572
     46 H2        -24.3789   51.8097   -4.8138 H           1 O2N       0.0635
     47 H3        -23.7037   48.5206   -2.3200 H           1 O2N       0.0651
     48 H4        -22.0512   51.8954   -5.3774 H           1 O2N       0.0570
     49 H5        -18.7359   50.3914   -7.5992 H           1 O2N       0.0445
     50 H6        -21.9566   48.0032   -0.1453 H           1 O2N       0.0534
     51 H7        -20.8114   43.9368   -0.0649 H           1 O2N       0.0534
     52 H8        -18.9860   47.3684   -3.5407 H           1 O2N       0.0534
     53 H9        -18.9392   44.2315   -0.7116 H           1 O2N       0.0534
     54 H10       -16.9205   49.1431   -8.5582 H           1 O2N       0.0514
     55 H11       -22.8040   47.8124    2.0430 H           1 O2N       0.0526
     56 H12       -21.5788   43.7961    2.2079 H           1 O2N       0.0526
     57 H13       -16.6267   47.1982   -3.7687 H           1 O2N       0.0526
     58 H14       -16.5802   44.0189   -1.0199 H           1 O2N       0.0526
     59 H15       -20.4444   52.1047   -0.6013 H           1 O2N       0.0292
     60 H16       -20.4080   53.0345   -2.0336 H           1 O2N       0.0292
     61 H17       -18.7115   50.7837   -1.3641 H           1 O2N       0.0725
     62 H18       -12.8357   50.9564   -8.0843 H           1 O2N       0.0973
     63 H19       -12.5099   49.7182   -6.8602 H           1 O2N       0.0973
     64 H20       -22.5599   46.3285    5.5650 H           1 O2N       0.0575
     65 H21       -22.3428   47.6095    4.3687 H           1 O2N       0.0575
     66 H22       -21.0438   46.4194    4.6517 H           1 O2N       0.0575
     67 H23       -13.1897   46.0188   -1.8293 H           1 O2N       0.0575
     68 H24       -14.3934   45.6426   -0.5838 H           1 O2N       0.0575
     69 H25       -14.4588   47.2003   -1.4624 H           1 O2N       0.0575
     70 H26       -20.1370   50.1210   -5.7294 H           1 O2N       0.0995
     71 H27       -19.4069   49.5215   -4.2879 H           1 O2N       0.0995
     72 H28       -19.5556   52.3118   -6.4295 H           1 O2N       0.0966
     73 H29       -18.5416   53.3188   -5.4970 H           1 O2N       0.0966
     74 H30       -17.6365   50.9533   -3.3764 H           1 O2N       0.0998
     75 H31       -17.9341   52.6855   -3.1986 H           1 O2N       0.0998
     76 H32       -21.1214   45.1415   -2.2441 H           1 O2N       0.0837
     77 H33       -22.1243   46.7933   -3.0936 H           1 O2N       0.1893
     78 H34       -20.0972   52.3117   -4.1863 H           1 O2N       0.2082
@<TRIPOS>BOND
     1     1     2  ar
     2     3     1  ar
     3     4     2  ar
     4    15     3  ar
     5    19     4  ar
     6     5    10  ar
     7    20     5  ar
     8     6    11  ar
     9    17     6  ar
    10     7    12  ar
    11    17     7  ar
    12     8    13  ar
    13    18     8  ar
    14     9    14  ar
    15    18     9  ar
    16    10    21  ar
    17    11    23  ar
    18    12    23  ar
    19    13    24  ar
    20    14    24  ar
    21    15    19  ar
    22    27    15   1
    23    20    16  ar
    24    16    22  ar
    25    16    28   1
    26    35    17   1
    27    35    18   1
    28    19    32   1
    29    33    20   1
    30    22    21  ar
    31    21    41   1
    32    22    42   1
    33    23    43   1
    34    24    44   1
    35    26    25   2
    36    34    26   1
    37    36    27  am
    38    27    39   2
    39    28    38  ar
    40    28    40  ar
    41    29    41   1
    42    42    29   1
    43    43    30   1
    44    44    31   1
    45    32    37   1
    46    37    33   1
    47    37    34   1
    48    35    36   1
    49     1    45   1
    50     2    46   1
    51     3    47   1
    52     4    48   1
    53     5    49   1
    54     6    50   1
    55     7    51   1
    56     8    52   1
    57     9    53   1
    58    10    54   1
    59    11    55   1
    60    12    56   1
    61    13    57   1
    62    14    58   1
    63    25    59   1
    64    25    60   1
    65    26    61   1
    66    29    62   1
    67    29    63   1
    68    30    64   1
    69    30    65   1
    70    30    66   1
    71    31    67   1
    72    31    68   1
    73    31    69   1
    74    32    70   1
    75    32    71   1
    76    33    72   1
    77    33    73   1
    78    34    74   1
    79    34    75   1
    80    35    76   1
    81    36    77   1
    82    37    78   1
@<TRIPOS>SUBSTRUCTURE
     1  O2N      1

