@<TRIPOS>MOLECULE
3zso_ligand_003
    78    82
SMALL
GAST_HUCK
****
This file was generated by PARSER (from files_GN.cpp)

@<TRIPOS>ATOM
      1 C1        -11.3808   47.4387    2.2150 C.ar        1 O2N      -0.0630
      2 C2        -12.0214   48.5989    2.6737 C.ar        1 O2N      -0.0640
      3 C3        -11.8984   46.7511    1.1053 C.ar        1 O2N      -0.0483
      4 C4        -13.1434   49.1011    1.9843 C.ar        1 O2N      -0.0493
      5 C5        -16.1575   53.3690   -0.1871 C.ar        1 O2N      -0.0712
      6 C6        -15.1122   44.5329   -4.5041 C.ar        1 O2N      -0.0648
      7 C7        -15.9440   46.2059   -2.9623 C.ar        1 O2N      -0.0648
      8 C8        -11.4391   43.9767   -2.9057 C.ar        1 O2N      -0.0648
      9 C9        -13.5019   43.1504   -1.9404 C.ar        1 O2N      -0.0648
     10 C10       -16.3418   54.7555   -0.3533 C.ar        1 O2N      -0.0449
     11 C11       -16.3954   44.4168   -5.0727 C.ar        1 O2N      -0.0392
     12 C12       -17.2323   46.0877   -3.5270 C.ar        1 O2N      -0.0392
     13 C13       -10.8128   42.7432   -2.6254 C.ar        1 O2N      -0.0392
     14 C14       -12.8768   41.9224   -1.6475 C.ar        1 O2N      -0.0392
     15 C15       -13.0390   47.2314    0.4112 C.ar        1 O2N       0.0566
     16 C16       -16.4224   53.0164   -2.5935 C.ar        1 O2N       0.0376
     17 C17       -14.8556   45.4228   -3.4283 C.ar        1 O2N      -0.0192
     18 C18       -12.7995   44.2052   -2.5731 C.ar        1 O2N      -0.0192
     19 C19       -13.6374   48.4695    0.8141 C.ar        1 O2N       0.0220
     20 C20       -16.1485   52.4795   -1.2938 C.ar        1 O2N      -0.0032
     21 C21       -16.5519   55.2636   -1.6418 C.ar        1 O2N       0.1200
     22 C22       -16.6171   54.4117   -2.7330 C.ar        1 O2N       0.1327
     23 C23       -17.4651   45.1975   -4.5964 C.ar        1 O2N       0.0839
     24 C24       -11.5292   41.7085   -1.9911 C.ar        1 O2N       0.0839
     25 C25       -13.1869   52.5699    1.7382 C.2         1 O2N      -0.1125
     26 C26       -12.7278   51.8179    0.7308 C.2         1 O2N      -0.0447
     27 C27       -13.5813   46.3783   -0.5387 C.2         1 O2N       0.2037
     28 C28       -16.5523   52.2170   -3.7518 C.2         1 O2N       0.0515
     29 C29       -16.7929   56.4626   -3.4199 C.3         1 O2N       0.1864
     30 C30       -19.2670   46.1784   -5.7557 C.3         1 O2N       0.0579
     31 C31        -9.7399   40.4763   -1.0542 C.3         1 O2N       0.0579
     32 C32       -14.7904   49.1059    0.0966 C.3         1 O2N       0.0086
     33 C33       -15.9370   51.0145   -1.0236 C.3         1 O2N       0.0003
     34 C34       -13.4935   51.2593   -0.3799 C.3         1 O2N      -0.0011
     35 C35       -13.4557   45.5280   -2.8793 C.3         1 O2N       0.0982
     36 N36       -13.2096   46.4675   -1.8109 N.am        1 O2N      -0.2653
     37 N37       -14.8332   50.6161   -0.0661 N.4         1 O2N       0.2715
     38 O38       -15.4458   51.6756   -4.3123 O.co2       1 O2N      -0.5668
     39 O39       -14.2460   45.4373   -0.1242 O.2         1 O2N      -0.3883
     40 O40       -17.6665   52.3165   -4.5160 O.co2       1 O2N      -0.5668
     41 O41       -16.7468   56.5509   -1.9820 O.3         1 O2N      -0.2947
     42 O42       -16.8797   55.0975   -3.8684 O.3         1 O2N      -0.2890
     43 O43       -18.7075   45.0074   -5.1374 O.3         1 O2N      -0.3255
     44 O44       -10.9759   40.4692   -1.7839 O.3         1 O2N      -0.3255
     45 H1        -10.5643   47.0723    2.7123 H           1 O2N       0.0572
     46 H2        -11.6825   49.0649    3.5221 H           1 O2N       0.0635
     47 H3        -11.4369   45.8789    0.8206 H           1 O2N       0.0651
     48 H4        -13.5932   49.9464    2.3526 H           1 O2N       0.0570
     49 H5        -16.0407   53.0116    0.7642 H           1 O2N       0.0445
     50 H6        -14.3586   43.9547   -4.8807 H           1 O2N       0.0534
     51 H7        -15.8166   46.8814   -2.2086 H           1 O2N       0.0534
     52 H8        -10.8894   44.7078   -3.3672 H           1 O2N       0.0534
     53 H9        -14.4899   43.2625   -1.7054 H           1 O2N       0.0534
     54 H10       -16.3299   55.3832    0.4529 H           1 O2N       0.0514
     55 H11       -16.5455   43.7598   -5.8432 H           1 O2N       0.0526
     56 H12       -17.9996   46.6595   -3.1619 H           1 O2N       0.0526
     57 H13        -9.8337   42.5982   -2.8812 H           1 O2N       0.0526
     58 H14       -13.4103   41.1822   -1.1870 H           1 O2N       0.0526
     59 H15       -12.5564   52.9274    2.4221 H           1 O2N       0.0292
     60 H16       -14.1454   52.7917    1.8328 H           1 O2N       0.0292
     61 H17       -11.7446   51.6459    0.7189 H           1 O2N       0.0725
     62 H18       -15.8914   56.9215   -3.8382 H           1 O2N       0.0973
     63 H19       -17.6587   57.0196   -3.7838 H           1 O2N       0.0973
     64 H20       -20.1803   45.8834   -6.2734 H           1 O2N       0.0575
     65 H21       -18.5863   46.6163   -6.4904 H           1 O2N       0.0575
     66 H22       -19.5275   46.9294   -5.0071 H           1 O2N       0.0575
     67 H23        -9.4609   39.4429   -0.8400 H           1 O2N       0.0575
     68 H24        -9.8325   41.0058   -0.1021 H           1 O2N       0.0575
     69 H25        -8.9413   40.9257   -1.6478 H           1 O2N       0.0575
     70 H26       -15.6886   48.8012    0.6401 H           1 O2N       0.0995
     71 H27       -14.8514   48.6680   -0.8998 H           1 O2N       0.0995
     72 H28       -15.7738   50.4805   -1.9625 H           1 O2N       0.0966
     73 H29       -16.8869   50.6550   -0.6170 H           1 O2N       0.0966
     74 H30       -12.8417   50.5440   -0.8857 H           1 O2N       0.0998
     75 H31       -13.5980   52.0781   -1.0999 H           1 O2N       0.0998
     76 H32       -12.9030   45.9574   -3.7198 H           1 O2N       0.0837
     77 H33       -12.6566   47.2333   -2.0386 H           1 O2N       0.1893
     78 H34       -15.1638   50.9628    0.8339 H           1 O2N       0.2082
@<TRIPOS>BOND
     1     1     2  ar
     2     3     1  ar
     3     4     2  ar
     4    15     3  ar
     5    19     4  ar
     6     5    10  ar
     7    20     5  ar
     8     6    11  ar
     9    17     6  ar
    10     7    12  ar
    11    17     7  ar
    12     8    13  ar
    13    18     8  ar
    14     9    14  ar
    15    18     9  ar
    16    10    21  ar
    17    11    23  ar
    18    12    23  ar
    19    13    24  ar
    20    14    24  ar
    21    15    19  ar
    22    27    15   1
    23    20    16  ar
    24    16    22  ar
    25    16    28   1
    26    35    17   1
    27    35    18   1
    28    19    32   1
    29    33    20   1
    30    22    21  ar
    31    21    41   1
    32    22    42   1
    33    23    43   1
    34    24    44   1
    35    26    25   2
    36    34    26   1
    37    36    27  am
    38    27    39   2
    39    28    38  ar
    40    28    40  ar
    41    29    41   1
    42    42    29   1
    43    43    30   1
    44    44    31   1
    45    32    37   1
    46    37    33   1
    47    37    34   1
    48    35    36   1
    49     1    45   1
    50     2    46   1
    51     3    47   1
    52     4    48   1
    53     5    49   1
    54     6    50   1
    55     7    51   1
    56     8    52   1
    57     9    53   1
    58    10    54   1
    59    11    55   1
    60    12    56   1
    61    13    57   1
    62    14    58   1
    63    25    59   1
    64    25    60   1
    65    26    61   1
    66    29    62   1
    67    29    63   1
    68    30    64   1
    69    30    65   1
    70    30    66   1
    71    31    67   1
    72    31    68   1
    73    31    69   1
    74    32    70   1
    75    32    71   1
    76    33    72   1
    77    33    73   1
    78    34    74   1
    79    34    75   1
    80    35    76   1
    81    36    77   1
    82    37    78   1
@<TRIPOS>SUBSTRUCTURE
     1  O2N      1

