@<TRIPOS>MOLECULE
3zso_ligand_014
    78    82
SMALL
GAST_HUCK
****
This file was generated by PARSER (from files_GN.cpp)

@<TRIPOS>ATOM
      1 C1        -17.7069   48.9787   -7.9612 C.ar        1 O2N      -0.0630
      2 C2        -16.4272   49.0965   -7.4114 C.ar        1 O2N      -0.0640
      3 C3        -18.5453   47.9324   -7.5539 C.ar        1 O2N      -0.0483
      4 C4        -15.9882   48.1586   -6.4677 C.ar        1 O2N      -0.0493
      5 C5        -13.3596   45.4907   -3.3688 C.ar        1 O2N      -0.0712
      6 C6        -20.6995   43.9015   -8.2476 C.ar        1 O2N      -0.0648
      7 C7        -21.9456   42.7210   -6.5264 C.ar        1 O2N      -0.0648
      8 C8        -23.6394   45.8812   -5.1638 C.ar        1 O2N      -0.0648
      9 C9        -23.1731   46.3723   -7.4989 C.ar        1 O2N      -0.0648
     10 C10       -11.9799   45.6389   -3.1332 C.ar        1 O2N      -0.0449
     11 C11       -20.6002   42.7135   -8.9936 C.ar        1 O2N      -0.0392
     12 C12       -21.8469   41.5315   -7.2710 C.ar        1 O2N      -0.0392
     13 C13       -24.9023   46.4874   -5.2889 C.ar        1 O2N      -0.0392
     14 C14       -24.4349   46.9774   -7.6256 C.ar        1 O2N      -0.0392
     15 C15       -18.1384   46.9592   -6.5961 C.ar        1 O2N       0.0566
     16 C16       -13.8582   46.1315   -1.0555 C.ar        1 O2N       0.0376
     17 C17       -21.3609   43.9229   -6.9924 C.ar        1 O2N      -0.0192
     18 C18       -22.7567   45.8052   -6.2690 C.ar        1 O2N      -0.0192
     19 C19       -16.8048   47.0705   -6.0583 C.ar        1 O2N       0.0220
     20 C20       -14.3170   45.7137   -2.3437 C.ar        1 O2N      -0.0032
     21 C21       -11.5543   46.0269   -1.8561 C.ar        1 O2N       0.1200
     22 C22       -12.4691   46.2755   -0.8459 C.ar        1 O2N       0.1327
     23 C23       -21.1545   41.5163   -8.4967 C.ar        1 O2N       0.0839
     24 C24       -25.3123   47.0225   -6.5247 C.ar        1 O2N       0.0839
     25 C25       -19.7037   46.1168   -2.0890 C.2         1 O2N      -0.1125
     26 C26       -18.6437   45.9185   -2.8839 C.2         1 O2N      -0.0447
     27 C27       -19.0669   45.9534   -6.2564 C.2         1 O2N       0.2037
     28 C28       -14.7171   46.3900    0.0293 C.2         1 O2N       0.0515
     29 C29       -10.4697   46.6550   -0.0979 C.3         1 O2N       0.1864
     30 C30       -19.7200   39.8674   -9.3594 C.3         1 O2N       0.0579
     31 C31       -27.5672   46.7347   -7.0808 C.3         1 O2N       0.0579
     32 C32       -16.1745   46.1376   -5.0605 C.3         1 O2N       0.0086
     33 C33       -15.7520   45.4609   -2.6652 C.3         1 O2N       0.0003
     34 C34       -17.6910   46.9696   -3.2125 C.3         1 O2N      -0.0011
     35 C35       -21.4175   45.1578   -6.1424 C.3         1 O2N       0.0982
     36 N36       -20.3835   46.1296   -6.3979 N.am        1 O2N      -0.2653
     37 N37       -16.3177   46.5064   -3.6088 N.4         1 O2N       0.2715
     38 O38       -14.9990   47.6774    0.3352 O.co2       1 O2N      -0.5668
     39 O39       -18.6895   44.8344   -5.9402 O.2         1 O2N      -0.3883
     40 O40       -14.7406   45.5038    1.0510 O.co2       1 O2N      -0.5668
     41 O41       -10.2824   46.1645   -1.4383 O.3         1 O2N      -0.2947
     42 O42       -11.8484   46.6045    0.3067 O.3         1 O2N      -0.2890
     43 O43       -21.0678   40.3482   -9.2059 O.3         1 O2N      -0.3255
     44 O44       -26.5321   47.6296   -6.6399 O.3         1 O2N      -0.3255
     45 H1        -18.0339   49.6537   -8.6576 H           1 O2N       0.0572
     46 H2        -15.8168   49.8639   -7.7027 H           1 O2N       0.0635
     47 H3        -19.4641   47.8833   -8.0028 H           1 O2N       0.0651
     48 H4        -15.0493   48.2816   -6.0787 H           1 O2N       0.0570
     49 H5        -13.6505   45.1765   -4.2952 H           1 O2N       0.0445
     50 H6        -20.2633   44.7482   -8.6206 H           1 O2N       0.0534
     51 H7        -22.4346   42.7008   -5.6275 H           1 O2N       0.0534
     52 H8        -23.3691   45.4913   -4.2577 H           1 O2N       0.0534
     53 H9        -22.5566   46.3499   -8.3144 H           1 O2N       0.0534
     54 H10       -11.2967   45.4517   -3.8710 H           1 O2N       0.0514
     55 H11       -20.1078   42.7181   -9.8911 H           1 O2N       0.0526
     56 H12       -22.2656   40.6712   -6.9095 H           1 O2N       0.0526
     57 H13       -25.5241   46.5347   -4.4785 H           1 O2N       0.0526
     58 H14       -24.7162   47.3815   -8.5211 H           1 O2N       0.0526
     59 H15       -20.3295   45.3710   -1.9023 H           1 O2N       0.0292
     60 H16       -19.8749   47.0025   -1.6789 H           1 O2N       0.0292
     61 H17       -18.5146   45.0093   -3.2609 H           1 O2N       0.0725
     62 H18       -10.1230   47.6906   -0.0490 H           1 O2N       0.0973
     63 H19        -9.8730   46.0553    0.5928 H           1 O2N       0.0973
     64 H20       -19.7599   38.8998   -9.8628 H           1 O2N       0.0575
     65 H21       -19.2261   39.7265   -8.3933 H           1 O2N       0.0575
     66 H22       -19.1267   40.5458   -9.9769 H           1 O2N       0.0575
     67 H23       -28.4977   47.2981   -7.1463 H           1 O2N       0.0575
     68 H24       -27.7136   45.9159   -6.3720 H           1 O2N       0.0575
     69 H25       -27.3468   46.3260   -8.0702 H           1 O2N       0.0575
     70 H26       -15.1110   46.0870   -5.2987 H           1 O2N       0.0995
     71 H27       -16.5021   45.1151   -5.1803 H           1 O2N       0.0995
     72 H28       -16.3188   45.4047   -1.7330 H           1 O2N       0.0966
     73 H29       -15.8346   44.4501   -3.0777 H           1 O2N       0.0966
     74 H30       -17.5755   47.6285   -2.3509 H           1 O2N       0.0998
     75 H31       -18.1086   47.5890   -4.0121 H           1 O2N       0.0998
     76 H32       -21.2570   44.8560   -5.1020 H           1 O2N       0.0837
     77 H33       -20.6857   47.0053   -6.6887 H           1 O2N       0.1893
     78 H34       -15.7288   47.3334   -3.4865 H           1 O2N       0.2082
@<TRIPOS>BOND
     1     1     2  ar
     2     3     1  ar
     3     4     2  ar
     4    15     3  ar
     5    19     4  ar
     6     5    10  ar
     7    20     5  ar
     8     6    11  ar
     9    17     6  ar
    10     7    12  ar
    11    17     7  ar
    12     8    13  ar
    13    18     8  ar
    14     9    14  ar
    15    18     9  ar
    16    10    21  ar
    17    11    23  ar
    18    12    23  ar
    19    13    24  ar
    20    14    24  ar
    21    15    19  ar
    22    27    15   1
    23    20    16  ar
    24    16    22  ar
    25    16    28   1
    26    35    17   1
    27    35    18   1
    28    19    32   1
    29    33    20   1
    30    22    21  ar
    31    21    41   1
    32    22    42   1
    33    23    43   1
    34    24    44   1
    35    26    25   2
    36    34    26   1
    37    36    27  am
    38    27    39   2
    39    28    38  ar
    40    28    40  ar
    41    29    41   1
    42    42    29   1
    43    43    30   1
    44    44    31   1
    45    32    37   1
    46    37    33   1
    47    37    34   1
    48    35    36   1
    49     1    45   1
    50     2    46   1
    51     3    47   1
    52     4    48   1
    53     5    49   1
    54     6    50   1
    55     7    51   1
    56     8    52   1
    57     9    53   1
    58    10    54   1
    59    11    55   1
    60    12    56   1
    61    13    57   1
    62    14    58   1
    63    25    59   1
    64    25    60   1
    65    26    61   1
    66    29    62   1
    67    29    63   1
    68    30    64   1
    69    30    65   1
    70    30    66   1
    71    31    67   1
    72    31    68   1
    73    31    69   1
    74    32    70   1
    75    32    71   1
    76    33    72   1
    77    33    73   1
    78    34    74   1
    79    34    75   1
    80    35    76   1
    81    36    77   1
    82    37    78   1
@<TRIPOS>SUBSTRUCTURE
     1  O2N      1

