@<TRIPOS>MOLECULE
3zso_ligand_038
    78    82
SMALL
GAST_HUCK
****
This file was generated by PARSER (from files_GN.cpp)

@<TRIPOS>ATOM
      1 C1        -16.6877   48.4864   -7.0275 C.ar        1 O2N      -0.0630
      2 C2        -15.5698   48.1287   -6.2688 C.ar        1 O2N      -0.0640
      3 C3        -17.8660   47.7294   -6.9325 C.ar        1 O2N      -0.0483
      4 C4        -15.6215   46.9912   -5.4498 C.ar        1 O2N      -0.0493
      5 C5        -13.5509   44.7202   -3.1671 C.ar        1 O2N      -0.0712
      6 C6        -23.4734   46.3061   -3.9287 C.ar        1 O2N      -0.0648
      7 C7        -21.2408   47.0229   -3.3201 C.ar        1 O2N      -0.0648
      8 C8        -21.7958   44.7395   -7.7244 C.ar        1 O2N      -0.0648
      9 C9        -22.4736   43.8196   -5.5833 C.ar        1 O2N      -0.0648
     10 C10       -12.3005   45.3581   -3.2725 C.ar        1 O2N      -0.0449
     11 C11       -23.9063   46.5162   -2.6068 C.ar        1 O2N      -0.0392
     12 C12       -21.6711   47.2519   -2.0016 C.ar        1 O2N      -0.0392
     13 C13       -21.9896   43.4859   -8.3265 C.ar        1 O2N      -0.0392
     14 C14       -22.6845   42.5681   -6.1858 C.ar        1 O2N      -0.0392
     15 C15       -17.9578   46.5842   -6.0921 C.ar        1 O2N       0.0566
     16 C16       -14.0859   46.0371   -1.1642 C.ar        1 O2N       0.0376
     17 C17       -22.1249   46.5137   -4.3088 C.ar        1 O2N      -0.0192
     18 C18       -22.0282   44.9335   -6.3406 C.ar        1 O2N      -0.0192
     19 C19       -16.7817   46.1739   -5.3660 C.ar        1 O2N       0.0220
     20 C20       -14.4615   45.0414   -2.1263 C.ar        1 O2N      -0.0032
     21 C21       -11.9547   46.3274   -2.3217 C.ar        1 O2N       0.1200
     22 C22       -12.8275   46.6686   -1.3056 C.ar        1 O2N       0.1327
     23 C23       -22.9973   46.9705   -1.6319 C.ar        1 O2N       0.0839
     24 C24       -22.4486   42.3941   -7.5627 C.ar        1 O2N       0.0839
     25 C25       -19.9903   44.7550   -1.0757 C.2         1 O2N      -0.1125
     26 C26       -18.6743   44.8547   -1.3679 C.2         1 O2N      -0.0447
     27 C27       -19.2095   45.9573   -6.0104 C.2         1 O2N       0.2037
     28 C28       -14.8818   46.3747   -0.0441 C.2         1 O2N       0.0515
     29 C29       -10.9203   47.6545   -0.9803 C.3         1 O2N       0.1864
     30 C30       -22.8724   46.2155    0.5747 C.3         1 O2N       0.0579
     31 C31       -23.9263   40.9422   -8.6601 C.3         1 O2N       0.0579
     32 C32       -16.6293   44.9600   -4.4891 C.3         1 O2N       0.0086
     33 C33       -15.8208   44.4123   -2.1683 C.3         1 O2N       0.0003
     34 C34       -18.1534   45.5103   -2.5558 C.3         1 O2N      -0.0011
     35 C35       -21.7030   46.2707   -5.7361 C.3         1 O2N       0.0982
     36 N36       -20.3382   46.6749   -5.9960 N.am        1 O2N      -0.2653
     37 N37       -16.7320   45.2730   -3.0150 N.4         1 O2N       0.2715
     38 O38       -15.1760   47.6662    0.2336 O.co2       1 O2N      -0.5668
     39 O39       -19.2682   44.7394   -5.9346 O.2         1 O2N      -0.3883
     40 O40       -14.9514   45.5112    0.9953 O.co2       1 O2N      -0.5668
     41 O41       -10.7989   47.0096   -2.2589 O.3         1 O2N      -0.2947
     42 O42       -12.2770   47.6118   -0.5077 O.3         1 O2N      -0.2890
     43 O43       -23.4179   47.1758   -0.3465 O.3         1 O2N      -0.3255
     44 O44       -22.6069   41.1595   -8.1315 O.3         1 O2N      -0.3255
     45 H1        -16.6533   49.3062   -7.6348 H           1 O2N       0.0572
     46 H2        -14.7199   48.6939   -6.3171 H           1 O2N       0.0635
     47 H3        -18.6614   48.0292   -7.5024 H           1 O2N       0.0651
     48 H4        -14.7815   46.7535   -4.9140 H           1 O2N       0.0570
     49 H5        -13.8012   44.0249   -3.8790 H           1 O2N       0.0445
     50 H6        -24.1577   45.9803   -4.6165 H           1 O2N       0.0534
     51 H7        -20.2733   47.2516   -3.5494 H           1 O2N       0.0534
     52 H8        -21.4548   45.5137   -8.3016 H           1 O2N       0.0534
     53 H9        -22.6304   43.8995   -4.5763 H           1 O2N       0.0534
     54 H10       -11.6621   45.1146   -4.0301 H           1 O2N       0.0514
     55 H11       -24.8777   46.3379   -2.3520 H           1 O2N       0.0526
     56 H12       -21.0078   47.6165   -1.3085 H           1 O2N       0.0526
     57 H13       -21.7954   43.3663   -9.3229 H           1 O2N       0.0526
     58 H14       -23.0045   41.7784   -5.6163 H           1 O2N       0.0526
     59 H15       -20.2788   44.3349   -0.2254 H           1 O2N       0.0292
     60 H16       -20.6806   45.0632   -1.7168 H           1 O2N       0.0292
     61 H17       -18.0395   44.6216   -0.6444 H           1 O2N       0.0725
     62 H18       -10.5951   48.6941   -1.0652 H           1 O2N       0.0973
     63 H19       -10.2697   47.1492   -0.2585 H           1 O2N       0.0973
     64 H20       -23.3050   46.4028    1.5578 H           1 O2N       0.0575
     65 H21       -21.7861   46.3171    0.6552 H           1 O2N       0.0575
     66 H22       -23.1226   45.1922    0.2793 H           1 O2N       0.0575
     67 H23       -23.9758   39.9234   -9.0459 H           1 O2N       0.0575
     68 H24       -24.1431   41.6269   -9.4847 H           1 O2N       0.0575
     69 H25       -24.6914   41.0516   -7.8865 H           1 O2N       0.0575
     70 H26       -15.6502   44.5339   -4.7323 H           1 O2N       0.0995
     71 H27       -17.3161   44.1538   -4.7380 H           1 O2N       0.0995
     72 H28       -16.1582   44.2726   -1.1486 H           1 O2N       0.0966
     73 H29       -15.7745   43.3914   -2.5590 H           1 O2N       0.0966
     74 H30       -18.2225   46.5819   -2.3527 H           1 O2N       0.0998
     75 H31       -18.8554   45.3274   -3.3747 H           1 O2N       0.0998
     76 H32       -22.3039   46.9930   -6.2962 H           1 O2N       0.0837
     77 H33       -20.2168   47.6355   -6.0487 H           1 O2N       0.1893
     78 H34       -16.3160   46.2054   -2.9355 H           1 O2N       0.2082
@<TRIPOS>BOND
     1     1     2  ar
     2     3     1  ar
     3     4     2  ar
     4    15     3  ar
     5    19     4  ar
     6     5    10  ar
     7    20     5  ar
     8     6    11  ar
     9    17     6  ar
    10     7    12  ar
    11    17     7  ar
    12     8    13  ar
    13    18     8  ar
    14     9    14  ar
    15    18     9  ar
    16    10    21  ar
    17    11    23  ar
    18    12    23  ar
    19    13    24  ar
    20    14    24  ar
    21    15    19  ar
    22    27    15   1
    23    20    16  ar
    24    16    22  ar
    25    16    28   1
    26    35    17   1
    27    35    18   1
    28    19    32   1
    29    33    20   1
    30    22    21  ar
    31    21    41   1
    32    22    42   1
    33    23    43   1
    34    24    44   1
    35    26    25   2
    36    34    26   1
    37    36    27  am
    38    27    39   2
    39    28    38  ar
    40    28    40  ar
    41    29    41   1
    42    42    29   1
    43    43    30   1
    44    44    31   1
    45    32    37   1
    46    37    33   1
    47    37    34   1
    48    35    36   1
    49     1    45   1
    50     2    46   1
    51     3    47   1
    52     4    48   1
    53     5    49   1
    54     6    50   1
    55     7    51   1
    56     8    52   1
    57     9    53   1
    58    10    54   1
    59    11    55   1
    60    12    56   1
    61    13    57   1
    62    14    58   1
    63    25    59   1
    64    25    60   1
    65    26    61   1
    66    29    62   1
    67    29    63   1
    68    30    64   1
    69    30    65   1
    70    30    66   1
    71    31    67   1
    72    31    68   1
    73    31    69   1
    74    32    70   1
    75    32    71   1
    76    33    72   1
    77    33    73   1
    78    34    74   1
    79    34    75   1
    80    35    76   1
    81    36    77   1
    82    37    78   1
@<TRIPOS>SUBSTRUCTURE
     1  O2N      1

