@<TRIPOS>MOLECULE
3zso_ligand_059
    78    82
SMALL
GAST_HUCK
****
This file was generated by PARSER (from files_GN.cpp)

@<TRIPOS>ATOM
      1 C1         -9.9052   47.1256    3.2179 C.ar        1 O2N      -0.0630
      2 C2        -10.7884   48.1354    3.6114 C.ar        1 O2N      -0.0640
      3 C3         -9.9494   46.6380    1.9046 C.ar        1 O2N      -0.0483
      4 C4        -11.6704   48.6842    2.6691 C.ar        1 O2N      -0.0493
      5 C5         -9.7953   51.0371   -3.1890 C.ar        1 O2N      -0.0712
      6 C6        -12.6782   45.1776   -3.2573 C.ar        1 O2N      -0.0648
      7 C7        -13.3012   43.3831   -1.7436 C.ar        1 O2N      -0.0648
      8 C8        -10.4163   42.0300   -2.2755 C.ar        1 O2N      -0.0648
      9 C9         -9.8253   42.6619   -0.0100 C.ar        1 O2N      -0.0648
     10 C10        -9.4208   51.9483   -4.1898 C.ar        1 O2N      -0.0449
     11 C11       -13.9580   45.1258   -3.8450 C.ar        1 O2N      -0.0392
     12 C12       -14.5802   43.3308   -2.3274 C.ar        1 O2N      -0.0392
     13 C13        -9.9310   40.7289   -2.0380 C.ar        1 O2N      -0.0392
     14 C14        -9.3406   41.3604    0.2300 C.ar        1 O2N      -0.0392
     15 C15       -10.8516   47.1635    0.9350 C.ar        1 O2N       0.0566
     16 C16       -11.6835   52.4489   -2.5459 C.ar        1 O2N       0.0376
     17 C17       -12.3267   44.3027   -2.2000 C.ar        1 O2N      -0.0192
     18 C18       -10.3965   43.0212   -1.2626 C.ar        1 O2N      -0.0192
     19 C19       -11.6755   48.2831    1.3069 C.ar        1 O2N       0.0220
     20 C20       -10.9182   51.2557   -2.3390 C.ar        1 O2N      -0.0032
     21 C21       -10.1722   53.1159   -4.3512 C.ar        1 O2N       0.1200
     22 C22       -11.2718   53.3687   -3.5432 C.ar        1 O2N       0.1327
     23 C23       -14.9179   44.2086   -3.3744 C.ar        1 O2N       0.0839
     24 C24        -9.3985   40.3826   -0.7833 C.ar        1 O2N       0.0839
     25 C25       -13.9022   52.2958    1.3938 C.2         1 O2N      -0.1125
     26 C26       -12.6735   51.8705    1.7131 C.2         1 O2N      -0.0447
     27 C27       -10.8514   46.5346   -0.3167 C.2         1 O2N       0.2037
     28 C28       -12.8697   52.7617   -1.8589 C.2         1 O2N       0.0515
     29 C29       -11.0765   54.9627   -5.0151 C.3         1 O2N       0.1864
     30 C30       -17.1385   44.9592   -3.3422 C.3         1 O2N       0.0579
     31 C31        -7.7694   38.9078    0.0851 C.3         1 O2N       0.0579
     32 C32       -12.6247   49.0189    0.3994 C.3         1 O2N       0.0086
     33 C33       -11.2224   50.1452   -1.3654 C.3         1 O2N       0.0003
     34 C34       -11.7006   51.3918    0.7446 C.3         1 O2N      -0.0011
     35 C35       -10.9769   44.3753   -1.5612 C.3         1 O2N       0.0982
     36 N36       -11.0977   45.2314   -0.4053 N.am        1 O2N      -0.2653
     37 N37       -12.1751   50.3302   -0.2182 N.4         1 O2N       0.2715
     38 O38       -12.8822   53.7627   -0.9459 O.co2       1 O2N      -0.5668
     39 O39       -10.5672   47.1730   -1.3182 O.2         1 O2N      -0.3883
     40 O40       -14.0570   52.3219   -2.3265 O.co2       1 O2N      -0.5668
     41 O41        -9.9814   54.0694   -5.2794 O.3         1 O2N      -0.2947
     42 O42       -11.8746   54.5226   -3.9014 O.3         1 O2N      -0.2890
     43 O43       -16.1456   44.1295   -3.9684 O.3         1 O2N      -0.3255
     44 O44        -9.0395   39.0797   -0.5619 O.3         1 O2N      -0.3255
     45 H1         -9.2414   46.7317    3.8878 H           1 O2N       0.0572
     46 H2        -10.7967   48.4620    4.5795 H           1 O2N       0.0635
     47 H3         -9.2970   45.8852    1.6656 H           1 O2N       0.0651
     48 H4        -12.3235   49.3908    3.0045 H           1 O2N       0.0570
     49 H5         -9.2404   50.1799   -3.1015 H           1 O2N       0.0445
     50 H6        -12.0044   45.8651   -3.5994 H           1 O2N       0.0534
     51 H7        -13.0716   42.7394   -0.9893 H           1 O2N       0.0534
     52 H8        -10.8107   42.2443   -3.1940 H           1 O2N       0.0534
     53 H9         -9.7710   43.3290    0.7530 H           1 O2N       0.0534
     54 H10        -8.6284   51.7548   -4.8023 H           1 O2N       0.0514
     55 H11       -14.1913   45.7648   -4.6074 H           1 O2N       0.0526
     56 H12       -15.2669   42.6609   -1.9799 H           1 O2N       0.0526
     57 H13        -9.9795   40.0265   -2.7818 H           1 O2N       0.0526
     58 H14        -8.9589   41.1224    1.1421 H           1 O2N       0.0526
     59 H15       -14.5085   52.6385    2.1052 H           1 O2N       0.0292
     60 H16       -14.2357   52.2543    0.4606 H           1 O2N       0.0292
     61 H17       -12.3974   51.9221    2.6717 H           1 O2N       0.0725
     62 H18       -11.7083   55.0243   -5.9030 H           1 O2N       0.0973
     63 H19       -10.6789   55.9564   -4.8004 H           1 O2N       0.0973
     64 H20       -18.0758   44.8480   -3.8903 H           1 O2N       0.0575
     65 H21       -16.8529   46.0115   -3.3734 H           1 O2N       0.0575
     66 H22       -17.3122   44.6555   -2.3082 H           1 O2N       0.0575
     67 H23        -7.5312   37.8436    0.1067 H           1 O2N       0.0575
     68 H24        -7.8138   39.2649    1.1142 H           1 O2N       0.0575
     69 H25        -6.9729   39.4272   -0.4519 H           1 O2N       0.0575
     70 H26       -13.5331   49.2383    0.9718 H           1 O2N       0.0995
     71 H27       -12.9799   48.3490   -0.3834 H           1 O2N       0.0995
     72 H28       -10.2811   49.7919   -0.9330 H           1 O2N       0.0966
     73 H29       -11.6044   49.3470   -2.0023 H           1 O2N       0.0966
     74 H30       -10.8113   51.0340    1.2726 H           1 O2N       0.0998
     75 H31       -11.3890   52.2789    0.1939 H           1 O2N       0.0998
     76 H32       -10.2602   44.8478   -2.2424 H           1 O2N       0.0837
     77 H33       -11.3766   44.7967    0.4155 H           1 O2N       0.1893
     78 H34       -13.0188   50.7048   -0.6470 H           1 O2N       0.2082
@<TRIPOS>BOND
     1     1     2  ar
     2     3     1  ar
     3     4     2  ar
     4    15     3  ar
     5    19     4  ar
     6     5    10  ar
     7    20     5  ar
     8     6    11  ar
     9    17     6  ar
    10     7    12  ar
    11    17     7  ar
    12     8    13  ar
    13    18     8  ar
    14     9    14  ar
    15    18     9  ar
    16    10    21  ar
    17    11    23  ar
    18    12    23  ar
    19    13    24  ar
    20    14    24  ar
    21    15    19  ar
    22    27    15   1
    23    20    16  ar
    24    16    22  ar
    25    16    28   1
    26    35    17   1
    27    35    18   1
    28    19    32   1
    29    33    20   1
    30    22    21  ar
    31    21    41   1
    32    22    42   1
    33    23    43   1
    34    24    44   1
    35    26    25   2
    36    34    26   1
    37    36    27  am
    38    27    39   2
    39    28    38  ar
    40    28    40  ar
    41    29    41   1
    42    42    29   1
    43    43    30   1
    44    44    31   1
    45    32    37   1
    46    37    33   1
    47    37    34   1
    48    35    36   1
    49     1    45   1
    50     2    46   1
    51     3    47   1
    52     4    48   1
    53     5    49   1
    54     6    50   1
    55     7    51   1
    56     8    52   1
    57     9    53   1
    58    10    54   1
    59    11    55   1
    60    12    56   1
    61    13    57   1
    62    14    58   1
    63    25    59   1
    64    25    60   1
    65    26    61   1
    66    29    62   1
    67    29    63   1
    68    30    64   1
    69    30    65   1
    70    30    66   1
    71    31    67   1
    72    31    68   1
    73    31    69   1
    74    32    70   1
    75    32    71   1
    76    33    72   1
    77    33    73   1
    78    34    74   1
    79    34    75   1
    80    35    76   1
    81    36    77   1
    82    37    78   1
@<TRIPOS>SUBSTRUCTURE
     1  O2N      1

