@<TRIPOS>MOLECULE
3zso_ligand_029
    78    82
SMALL
GAST_HUCK
****
This file was generated by PARSER (from files_GN.cpp)

@<TRIPOS>ATOM
      1 C1        -15.1390   43.9814   -5.2518 C.ar        1 O2N      -0.0630
      2 C2        -15.8038   44.9213   -6.0541 C.ar        1 O2N      -0.0640
      3 C3        -15.1017   44.1559   -3.8606 C.ar        1 O2N      -0.0483
      4 C4        -16.4518   46.0223   -5.4708 C.ar        1 O2N      -0.0493
      5 C5        -17.7077   48.6945   -6.8343 C.ar        1 O2N      -0.0712
      6 C6        -12.7297   48.6180   -0.8144 C.ar        1 O2N      -0.0648
      7 C7        -14.1811   48.6777    1.1341 C.ar        1 O2N      -0.0648
      8 C8        -12.1212   45.1127   -1.0471 C.ar        1 O2N      -0.0648
      9 C9        -12.5402   45.2541    1.3423 C.ar        1 O2N      -0.0648
     10 C10       -16.6299   48.7558   -7.7293 C.ar        1 O2N      -0.0449
     11 C11       -12.3275   49.9399   -0.5543 C.ar        1 O2N      -0.0392
     12 C12       -13.7836   50.0007    1.3913 C.ar        1 O2N      -0.0392
     13 C13       -11.0056   44.2905   -0.8059 C.ar        1 O2N      -0.0392
     14 C14       -11.4278   44.4297    1.5867 C.ar        1 O2N      -0.0392
     15 C15       -15.7279   45.2746   -3.2488 C.ar        1 O2N       0.0566
     16 C16       -16.6603   50.3888   -5.3882 C.ar        1 O2N       0.0376
     17 C17       -13.6545   47.9583    0.0346 C.ar        1 O2N      -0.0192
     18 C18       -12.9095   45.6089    0.0205 C.ar        1 O2N      -0.0192
     19 C19       -16.4457   46.2084   -4.0655 C.ar        1 O2N       0.0220
     20 C20       -17.7148   49.4458   -5.6284 C.ar        1 O2N      -0.0032
     21 C21       -15.5364   49.5719   -7.4078 C.ar        1 O2N       0.1200
     22 C22       -15.5632   50.3842   -6.2825 C.ar        1 O2N       0.1327
     23 C23       -12.8439   50.6352    0.5565 C.ar        1 O2N       0.0839
     24 C24       -10.6618   43.9335    0.5146 C.ar        1 O2N       0.0839
     25 C25       -19.9337   45.5327   -1.4067 C.2         1 O2N      -0.1125
     26 C26       -19.5396   45.9054   -2.6427 C.2         1 O2N      -0.0447
     27 C27       -15.4974   45.4628   -1.8962 C.2         1 O2N       0.2037
     28 C28       -16.6674   51.3104   -4.3048 C.2         1 O2N       0.0515
     29 C29       -13.6028   50.5081   -7.2197 C.3         1 O2N       0.1864
     30 C30       -11.3880   52.0689    1.7111 C.3         1 O2N       0.0579
     31 C31        -9.7136   41.7868    0.5484 C.3         1 O2N       0.0579
     32 C32       -17.1119   47.4393   -3.5307 C.3         1 O2N       0.0086
     33 C33       -18.7369   49.0691   -4.6020 C.3         1 O2N       0.0003
     34 C34       -19.6162   47.2745   -3.1236 C.3         1 O2N      -0.0011
     35 C35       -14.0631   46.5359   -0.2043 C.3         1 O2N       0.0982
     36 N36       -14.6461   46.4052   -1.5115 N.am        1 O2N      -0.2653
     37 N37       -18.5116   47.6723   -4.0638 N.4         1 O2N       0.2715
     38 O38       -15.5234   51.7902   -3.7521 O.co2       1 O2N      -0.5668
     39 O39       -15.9936   44.6753   -1.0907 O.2         1 O2N      -0.3883
     40 O40       -17.8101   51.9637   -3.9861 O.co2       1 O2N      -0.5668
     41 O41       -14.3744   49.6543   -8.0837 O.3         1 O2N      -0.2947
     42 O42       -14.4383   51.1257   -6.2166 O.3         1 O2N      -0.2890
     43 O43       -12.4813   51.9316    0.7870 O.3         1 O2N      -0.3255
     44 O44        -9.5395   43.1956    0.7666 O.3         1 O2N      -0.3255
     45 H1        -14.6546   43.1920   -5.6866 H           1 O2N       0.0572
     46 H2        -15.7965   44.8077   -7.0640 H           1 O2N       0.0635
     47 H3        -14.5569   43.4936   -3.2968 H           1 O2N       0.0651
     48 H4        -16.9133   46.6991   -6.0901 H           1 O2N       0.0570
     49 H5        -18.4775   48.0589   -7.0453 H           1 O2N       0.0445
     50 H6        -12.3379   48.1363   -1.6249 H           1 O2N       0.0534
     51 H7        -14.8563   48.2357    1.7605 H           1 O2N       0.0534
     52 H8        -12.3401   45.3601   -2.0147 H           1 O2N       0.0534
     53 H9        -13.0753   45.6162    2.1380 H           1 O2N       0.0534
     54 H10       -16.6167   48.1671   -8.5641 H           1 O2N       0.0514
     55 H11       -11.6572   50.3979   -1.1722 H           1 O2N       0.0526
     56 H12       -14.1760   50.4987    2.1912 H           1 O2N       0.0526
     57 H13       -10.4385   43.9615   -1.5874 H           1 O2N       0.0526
     58 H14       -11.1684   44.2024    2.5469 H           1 O2N       0.0526
     59 H15       -19.8871   44.5831   -1.1332 H           1 O2N       0.0292
     60 H16       -20.2624   46.1991   -0.7503 H           1 O2N       0.0292
     61 H17       -19.2548   45.1969   -3.2777 H           1 O2N       0.0725
     62 H18       -13.1119   51.2876   -7.8122 H           1 O2N       0.0973
     63 H19       -12.8278   49.9152   -6.7155 H           1 O2N       0.0973
     64 H20       -11.1697   53.1309    1.8239 H           1 O2N       0.0575
     65 H21       -10.4878   51.5726    1.3379 H           1 O2N       0.0575
     66 H22       -11.6455   51.6680    2.6956 H           1 O2N       0.0575
     67 H23        -8.7848   41.2859    0.8273 H           1 O2N       0.0575
     68 H24        -9.9160   41.5679   -0.5049 H           1 O2N       0.0575
     69 H25       -10.5191   41.3778    1.1663 H           1 O2N       0.0575
     70 H26       -16.4448   48.2572   -3.8089 H           1 O2N       0.0995
     71 H27       -17.1474   47.4473   -2.4383 H           1 O2N       0.0995
     72 H28       -19.7191   49.1405   -5.0859 H           1 O2N       0.0966
     73 H29       -18.7423   49.7510   -3.7433 H           1 O2N       0.0966
     74 H30       -19.6649   47.9851   -2.2903 H           1 O2N       0.0998
     75 H31       -20.5722   47.3409   -3.6559 H           1 O2N       0.0998
     76 H32       -14.8631   46.2680    0.5028 H           1 O2N       0.0837
     77 H33       -14.3096   47.0014   -2.2068 H           1 O2N       0.1893
     78 H34       -18.6331   47.0532   -4.8679 H           1 O2N       0.2082
@<TRIPOS>BOND
     1     1     2  ar
     2     3     1  ar
     3     4     2  ar
     4    15     3  ar
     5    19     4  ar
     6     5    10  ar
     7    20     5  ar
     8     6    11  ar
     9    17     6  ar
    10     7    12  ar
    11    17     7  ar
    12     8    13  ar
    13    18     8  ar
    14     9    14  ar
    15    18     9  ar
    16    10    21  ar
    17    11    23  ar
    18    12    23  ar
    19    13    24  ar
    20    14    24  ar
    21    15    19  ar
    22    27    15   1
    23    20    16  ar
    24    16    22  ar
    25    16    28   1
    26    35    17   1
    27    35    18   1
    28    19    32   1
    29    33    20   1
    30    22    21  ar
    31    21    41   1
    32    22    42   1
    33    23    43   1
    34    24    44   1
    35    26    25   2
    36    34    26   1
    37    36    27  am
    38    27    39   2
    39    28    38  ar
    40    28    40  ar
    41    29    41   1
    42    42    29   1
    43    43    30   1
    44    44    31   1
    45    32    37   1
    46    37    33   1
    47    37    34   1
    48    35    36   1
    49     1    45   1
    50     2    46   1
    51     3    47   1
    52     4    48   1
    53     5    49   1
    54     6    50   1
    55     7    51   1
    56     8    52   1
    57     9    53   1
    58    10    54   1
    59    11    55   1
    60    12    56   1
    61    13    57   1
    62    14    58   1
    63    25    59   1
    64    25    60   1
    65    26    61   1
    66    29    62   1
    67    29    63   1
    68    30    64   1
    69    30    65   1
    70    30    66   1
    71    31    67   1
    72    31    68   1
    73    31    69   1
    74    32    70   1
    75    32    71   1
    76    33    72   1
    77    33    73   1
    78    34    74   1
    79    34    75   1
    80    35    76   1
    81    36    77   1
    82    37    78   1
@<TRIPOS>SUBSTRUCTURE
     1  O2N      1

