@<TRIPOS>MOLECULE
3zso_ligand_027
    78    82
SMALL
GAST_HUCK
****
This file was generated by PARSER (from files_GN.cpp)

@<TRIPOS>ATOM
      1 C1        -10.1144   40.7451   -1.9516 C.ar        1 O2N      -0.0630
      2 C2         -8.8537   40.8825   -1.3615 C.ar        1 O2N      -0.0640
      3 C3        -10.8022   41.8806   -2.3975 C.ar        1 O2N      -0.0483
      4 C4         -8.2929   42.1589   -1.2051 C.ar        1 O2N      -0.0493
      5 C5         -7.4860   47.4348    2.5003 C.ar        1 O2N      -0.0712
      6 C6        -12.5507   47.3101   -1.5122 C.ar        1 O2N      -0.0648
      7 C7        -14.5182   46.0450   -0.8808 C.ar        1 O2N      -0.0648
      8 C8        -14.9927   45.4760   -4.7794 C.ar        1 O2N      -0.0648
      9 C9        -15.1006   43.6608   -3.1783 C.ar        1 O2N      -0.0648
     10 C10        -7.5882   47.8369    3.8409 C.ar        1 O2N      -0.0449
     11 C11       -12.6921   48.1123   -0.3612 C.ar        1 O2N      -0.0392
     12 C12       -14.6624   46.8477    0.2669 C.ar        1 O2N      -0.0392
     13 C13       -16.1641   45.0048   -5.3990 C.ar        1 O2N      -0.0392
     14 C14       -16.2895   43.2041   -3.7805 C.ar        1 O2N      -0.0392
     15 C15       -10.2565   43.1849   -2.2530 C.ar        1 O2N       0.0566
     16 C16        -9.8911   46.8915    2.4295 C.ar        1 O2N       0.0376
     17 C17       -13.4639   46.2645   -1.8027 C.ar        1 O2N      -0.0192
     18 C18       -14.4344   44.8203   -3.6512 C.ar        1 O2N      -0.0192
     19 C19        -8.9778   43.3350   -1.6100 C.ar        1 O2N       0.0220
     20 C20        -8.6109   46.9435    1.7780 C.ar        1 O2N      -0.0032
     21 C21        -8.8392   47.7949    4.4579 C.ar        1 O2N       0.1200
     22 C22        -9.9610   47.3543    3.7721 C.ar        1 O2N       0.1327
     23 C23       -13.7496   47.8836    0.5447 C.ar        1 O2N       0.0839
     24 C24       -16.8264   43.8643   -4.9069 C.ar        1 O2N       0.0839
     25 C25        -7.0168   42.3021    2.2327 C.2         1 O2N      -0.1125
     26 C26        -7.6703   43.4171    1.8880 C.2         1 O2N      -0.0447
     27 C27       -11.0024   44.2312   -2.7932 C.2         1 O2N       0.2037
     28 C28       -11.0975   46.4262    1.8167 C.2         1 O2N       0.0515
     29 C29       -10.5327   48.0977    5.7454 C.3         1 O2N       0.1864
     30 C30       -13.7016   49.9524    1.7561 C.3         1 O2N       0.0579
     31 C31       -18.0838   42.1709   -6.0248 C.3         1 O2N       0.0579
     32 C32        -8.3014   44.6491   -1.3243 C.3         1 O2N       0.0086
     33 C33        -8.3701   46.5211    0.3569 C.3         1 O2N       0.0003
     34 C34        -7.1506   44.3948    0.9451 C.3         1 O2N      -0.0011
     35 C35       -13.2083   45.3703   -2.9798 C.3         1 O2N       0.0982
     36 N36       -12.3044   44.3454   -2.5305 N.am        1 O2N      -0.2653
     37 N37        -8.2666   45.0313    0.1417 N.4         1 O2N       0.2715
     38 O38       -12.3196   46.6841    2.3466 O.co2       1 O2N      -0.5668
     39 O39       -10.4607   44.9805   -3.5942 O.2         1 O2N      -0.3883
     40 O40       -11.1409   45.7292    0.6604 O.co2       1 O2N      -0.5668
     41 O41        -9.0985   48.1447    5.7292 O.3         1 O2N      -0.2947
     42 O42       -11.0405   47.4174    4.5838 O.3         1 O2N      -0.2890
     43 O43       -13.8597   48.5214    1.7536 O.3         1 O2N      -0.3255
     44 O44       -18.0152   43.5017   -5.4875 O.3         1 O2N      -0.3255
     45 H1        -10.5235   39.8192   -2.0773 H           1 O2N       0.0572
     46 H2         -8.3392   40.0534   -1.0561 H           1 O2N       0.0635
     47 H3        -11.7060   41.7375   -2.8581 H           1 O2N       0.0651
     48 H4         -7.3600   42.2125   -0.7985 H           1 O2N       0.0570
     49 H5         -6.5621   47.4834    2.0619 H           1 O2N       0.0445
     50 H6        -11.7498   47.4821   -2.1247 H           1 O2N       0.0534
     51 H7        -15.1864   45.2870   -1.0235 H           1 O2N       0.0534
     52 H8        -14.5583   46.3212   -5.1507 H           1 O2N       0.0534
     53 H9        -14.7415   43.1497   -2.3704 H           1 O2N       0.0534
     54 H10        -6.7668   48.1546    4.3580 H           1 O2N       0.0514
     55 H11       -11.9953   48.8332   -0.1675 H           1 O2N       0.0526
     56 H12       -15.4204   46.6490    0.9225 H           1 O2N       0.0526
     57 H13       -16.5497   45.5080   -6.2040 H           1 O2N       0.0526
     58 H14       -16.7670   42.3881   -3.3937 H           1 O2N       0.0526
     59 H15        -7.3996   41.6918    2.9153 H           1 O2N       0.0292
     60 H16        -6.1453   42.0678    1.8218 H           1 O2N       0.0292
     61 H17        -8.5191   43.6252    2.3641 H           1 O2N       0.0725
     62 H18       -10.9230   49.1193    5.7724 H           1 O2N       0.0973
     63 H19       -10.8690   47.5776    6.6423 H           1 O2N       0.0973
     64 H20       -13.9845   50.3366    2.7399 H           1 O2N       0.0575
     65 H21       -14.3403   50.4329    1.0095 H           1 O2N       0.0575
     66 H22       -12.6595   50.2224    1.5778 H           1 O2N       0.0575
     67 H23       -18.9541   42.1111   -6.6808 H           1 O2N       0.0575
     68 H24       -18.2203   41.4510   -5.2186 H           1 O2N       0.0575
     69 H25       -17.1969   41.9093   -6.6073 H           1 O2N       0.0575
     70 H26        -8.8100   45.4331   -1.8854 H           1 O2N       0.0995
     71 H27        -7.2930   44.6314   -1.7386 H           1 O2N       0.0995
     72 H28        -7.4570   46.9776   -0.0425 H           1 O2N       0.0966
     73 H29        -9.1876   46.9470   -0.2330 H           1 O2N       0.0966
     74 H30        -6.3936   43.9471    0.2970 H           1 O2N       0.0998
     75 H31        -6.5979   45.1230    1.5413 H           1 O2N       0.0998
     76 H32       -12.7007   45.9787   -3.7342 H           1 O2N       0.0837
     77 H33       -12.6707   43.7010   -1.9061 H           1 O2N       0.1893
     78 H34        -9.1311   44.6521    0.5243 H           1 O2N       0.2082
@<TRIPOS>BOND
     1     1     2  ar
     2     3     1  ar
     3     4     2  ar
     4    15     3  ar
     5    19     4  ar
     6     5    10  ar
     7    20     5  ar
     8     6    11  ar
     9    17     6  ar
    10     7    12  ar
    11    17     7  ar
    12     8    13  ar
    13    18     8  ar
    14     9    14  ar
    15    18     9  ar
    16    10    21  ar
    17    11    23  ar
    18    12    23  ar
    19    13    24  ar
    20    14    24  ar
    21    15    19  ar
    22    27    15   1
    23    20    16  ar
    24    16    22  ar
    25    16    28   1
    26    35    17   1
    27    35    18   1
    28    19    32   1
    29    33    20   1
    30    22    21  ar
    31    21    41   1
    32    22    42   1
    33    23    43   1
    34    24    44   1
    35    26    25   2
    36    34    26   1
    37    36    27  am
    38    27    39   2
    39    28    38  ar
    40    28    40  ar
    41    29    41   1
    42    42    29   1
    43    43    30   1
    44    44    31   1
    45    32    37   1
    46    37    33   1
    47    37    34   1
    48    35    36   1
    49     1    45   1
    50     2    46   1
    51     3    47   1
    52     4    48   1
    53     5    49   1
    54     6    50   1
    55     7    51   1
    56     8    52   1
    57     9    53   1
    58    10    54   1
    59    11    55   1
    60    12    56   1
    61    13    57   1
    62    14    58   1
    63    25    59   1
    64    25    60   1
    65    26    61   1
    66    29    62   1
    67    29    63   1
    68    30    64   1
    69    30    65   1
    70    30    66   1
    71    31    67   1
    72    31    68   1
    73    31    69   1
    74    32    70   1
    75    32    71   1
    76    33    72   1
    77    33    73   1
    78    34    74   1
    79    34    75   1
    80    35    76   1
    81    36    77   1
    82    37    78   1
@<TRIPOS>SUBSTRUCTURE
     1  O2N      1

