@<TRIPOS>MOLECULE
3zso_ligand_087
    78    82
SMALL
GAST_HUCK
****
This file was generated by PARSER (from files_GN.cpp)

@<TRIPOS>ATOM
      1 C1        -21.3500   46.7735   -0.4029 C.ar        1 O2N      -0.0630
      2 C2        -21.7232   48.1137   -0.2487 C.ar        1 O2N      -0.0640
      3 C3        -20.4288   46.4107   -1.3948 C.ar        1 O2N      -0.0483
      4 C4        -21.1537   49.0962   -1.0768 C.ar        1 O2N      -0.0493
      5 C5        -19.7878   53.1706   -4.2785 C.ar        1 O2N      -0.0712
      6 C6        -15.2080   44.0026   -3.1110 C.ar        1 O2N      -0.0648
      7 C7        -15.0495   46.1891   -2.0623 C.ar        1 O2N      -0.0648
      8 C8        -15.8293   46.1468   -6.0606 C.ar        1 O2N      -0.0648
      9 C9        -16.4947   48.1114   -4.7783 C.ar        1 O2N      -0.0648
     10 C10       -19.5928   53.7988   -5.5207 C.ar        1 O2N      -0.0449
     11 C11       -14.0818   43.5747   -2.3790 C.ar        1 O2N      -0.0392
     12 C12       -13.9221   45.7636   -1.3363 C.ar        1 O2N      -0.0392
     13 C13       -15.4330   46.9825   -7.1192 C.ar        1 O2N      -0.0392
     14 C14       -16.0962   48.9448   -5.8399 C.ar        1 O2N      -0.0392
     15 C15       -19.8612   47.3861   -2.2567 C.ar        1 O2N       0.0566
     16 C16       -17.3919   53.3374   -3.7770 C.ar        1 O2N       0.0376
     17 C17       -15.7003   45.3230   -2.9779 C.ar        1 O2N      -0.0192
     18 C18       -16.4008   46.6992   -4.8843 C.ar        1 O2N      -0.0192
     19 C19       -20.2119   48.7605   -2.0820 C.ar        1 O2N       0.0220
     20 C20       -18.7063   52.9193   -3.3896 C.ar        1 O2N      -0.0032
     21 C21       -18.3007   54.1973   -5.8780 C.ar        1 O2N       0.1200
     22 C22       -17.2264   53.9684   -5.0323 C.ar        1 O2N       0.1327
     23 C23       -13.4229   44.4611   -1.5086 C.ar        1 O2N       0.0839
     24 C24       -15.6007   48.3807   -7.0343 C.ar        1 O2N       0.0839
     25 C25       -15.0909   50.7352   -1.0689 C.2         1 O2N      -0.1125
     26 C26       -16.4266   50.8837   -1.0600 C.2         1 O2N      -0.0447
     27 C27       -19.0032   46.9342   -3.2427 C.2         1 O2N       0.2037
     28 C28       -16.2400   53.1759   -2.9759 C.2         1 O2N       0.0515
     29 C29       -16.5917   55.2233   -6.6790 C.3         1 O2N       0.1864
     30 C30       -11.1245   44.0177   -1.5334 C.3         1 O2N       0.0579
     31 C31       -16.1467   50.1603   -8.4818 C.3         1 O2N       0.0579
     32 C32       -19.6279   49.8974   -2.8619 C.3         1 O2N       0.0086
     33 C33       -19.0200   52.2284   -2.0893 C.3         1 O2N       0.0003
     34 C34       -17.2753   50.3922   -2.1387 C.3         1 O2N      -0.0011
     35 C35       -16.8689   45.7968   -3.7801 C.3         1 O2N       0.0982
     36 N36       -17.8528   46.3722   -2.8969 N.am        1 O2N      -0.2653
     37 N37       -18.7289   50.7522   -1.9998 N.4         1 O2N       0.2715
     38 O38       -16.0623   53.9363   -1.8662 O.co2       1 O2N      -0.5668
     39 O39       -19.3564   47.0320   -4.4144 O.2         1 O2N      -0.3883
     40 O40       -15.1974   52.4332   -3.4059 O.co2       1 O2N      -0.5668
     41 O41       -17.9382   54.8362   -7.0034 O.3         1 O2N      -0.2947
     42 O42       -16.0880   54.4577   -5.5704 O.3         1 O2N      -0.2890
     43 O43       -12.3467   44.0354   -0.7769 O.3         1 O2N      -0.3255
     44 O44       -15.1994   49.1503   -8.0924 O.3         1 O2N      -0.3255
     45 H1        -21.7565   46.0569    0.2047 H           1 O2N       0.0572
     46 H2        -22.3962   48.3817    0.4712 H           1 O2N       0.0635
     47 H3        -20.1891   45.4189   -1.4953 H           1 O2N       0.0651
     48 H4        -21.4328   50.0716   -0.9348 H           1 O2N       0.0570
     49 H5        -20.7429   52.8986   -4.0278 H           1 O2N       0.0445
     50 H6        -15.6631   43.3414   -3.7452 H           1 O2N       0.0534
     51 H7        -15.3986   47.1366   -1.9103 H           1 O2N       0.0534
     52 H8        -15.7142   45.1283   -6.1557 H           1 O2N       0.0534
     53 H9        -16.8666   48.5418   -3.9240 H           1 O2N       0.0534
     54 H10       -20.3818   53.9730   -6.1478 H           1 O2N       0.0514
     55 H11       -13.7462   42.6139   -2.4834 H           1 O2N       0.0526
     56 H12       -13.4712   46.4049   -0.6773 H           1 O2N       0.0526
     57 H13       -15.0283   46.5721   -7.9624 H           1 O2N       0.0526
     58 H14       -16.1847   49.9597   -5.7431 H           1 O2N       0.0526
     59 H15       -14.5462   51.0708   -0.3091 H           1 O2N       0.0292
     60 H16       -14.6318   50.2871   -1.8274 H           1 O2N       0.0292
     61 H17       -16.8398   51.3166   -0.2646 H           1 O2N       0.0725
     62 H18       -16.5723   56.2870   -6.4192 H           1 O2N       0.0973
     63 H19       -15.9497   55.0751   -7.5492 H           1 O2N       0.0973
     64 H20       -10.3210   43.6826   -0.8754 H           1 O2N       0.0575
     65 H21       -10.8681   45.0146   -1.9032 H           1 O2N       0.0575
     66 H22       -11.1889   43.3219   -2.3750 H           1 O2N       0.0575
     67 H23       -15.7810   50.6317   -9.3954 H           1 O2N       0.0575
     68 H24       -16.2435   50.9298   -7.7129 H           1 O2N       0.0575
     69 H25       -17.1291   49.7299   -8.6902 H           1 O2N       0.0575
     70 H26       -20.4815   50.4655   -3.2437 H           1 O2N       0.0995
     71 H27       -19.0826   49.5612   -3.7485 H           1 O2N       0.0995
     72 H28       -20.0823   52.3520   -1.8597 H           1 O2N       0.0966
     73 H29       -18.5249   52.7551   -1.2760 H           1 O2N       0.0966
     74 H30       -17.1767   49.2994   -2.1486 H           1 O2N       0.0998
     75 H31       -16.9051   50.7613   -3.0998 H           1 O2N       0.0998
     76 H32       -17.3755   44.9386   -4.2399 H           1 O2N       0.0837
     77 H33       -17.6510   46.3682   -1.9437 H           1 O2N       0.1893
     78 H34       -18.9601   50.5013   -1.0320 H           1 O2N       0.2082
@<TRIPOS>BOND
     1     1     2  ar
     2     3     1  ar
     3     4     2  ar
     4    15     3  ar
     5    19     4  ar
     6     5    10  ar
     7    20     5  ar
     8     6    11  ar
     9    17     6  ar
    10     7    12  ar
    11    17     7  ar
    12     8    13  ar
    13    18     8  ar
    14     9    14  ar
    15    18     9  ar
    16    10    21  ar
    17    11    23  ar
    18    12    23  ar
    19    13    24  ar
    20    14    24  ar
    21    15    19  ar
    22    27    15   1
    23    20    16  ar
    24    16    22  ar
    25    16    28   1
    26    35    17   1
    27    35    18   1
    28    19    32   1
    29    33    20   1
    30    22    21  ar
    31    21    41   1
    32    22    42   1
    33    23    43   1
    34    24    44   1
    35    26    25   2
    36    34    26   1
    37    36    27  am
    38    27    39   2
    39    28    38  ar
    40    28    40  ar
    41    29    41   1
    42    42    29   1
    43    43    30   1
    44    44    31   1
    45    32    37   1
    46    37    33   1
    47    37    34   1
    48    35    36   1
    49     1    45   1
    50     2    46   1
    51     3    47   1
    52     4    48   1
    53     5    49   1
    54     6    50   1
    55     7    51   1
    56     8    52   1
    57     9    53   1
    58    10    54   1
    59    11    55   1
    60    12    56   1
    61    13    57   1
    62    14    58   1
    63    25    59   1
    64    25    60   1
    65    26    61   1
    66    29    62   1
    67    29    63   1
    68    30    64   1
    69    30    65   1
    70    30    66   1
    71    31    67   1
    72    31    68   1
    73    31    69   1
    74    32    70   1
    75    32    71   1
    76    33    72   1
    77    33    73   1
    78    34    74   1
    79    34    75   1
    80    35    76   1
    81    36    77   1
    82    37    78   1
@<TRIPOS>SUBSTRUCTURE
     1  O2N      1

