@<TRIPOS>MOLECULE
3zso_ligand_083
    78    82
SMALL
GAST_HUCK
****
This file was generated by PARSER (from files_GN.cpp)

@<TRIPOS>ATOM
      1 C1        -22.7985   45.3132   -1.2754 C.ar        1 O2N      -0.0630
      2 C2        -23.4861   46.3432   -1.9261 C.ar        1 O2N      -0.0640
      3 C3        -21.4324   45.1094   -1.5276 C.ar        1 O2N      -0.0483
      4 C4        -22.7803   47.2253   -2.7554 C.ar        1 O2N      -0.0493
      5 C5        -18.0482   50.2908   -4.5071 C.ar        1 O2N      -0.0712
      6 C6        -16.1429   46.3851   -2.7888 C.ar        1 O2N      -0.0648
      7 C7        -15.8716   43.9951   -3.1594 C.ar        1 O2N      -0.0648
      8 C8        -18.1754   47.0696   -6.2476 C.ar        1 O2N      -0.0648
      9 C9        -15.9472   46.1323   -6.1982 C.ar        1 O2N      -0.0648
     10 C10       -16.6983   50.5879   -4.2445 C.ar        1 O2N      -0.0449
     11 C11       -15.1577   46.3403   -1.7850 C.ar        1 O2N      -0.0392
     12 C12       -14.8751   43.9488   -2.1666 C.ar        1 O2N      -0.0392
     13 C13       -17.7775   47.9813   -7.2399 C.ar        1 O2N      -0.0392
     14 C14       -15.5358   47.0595   -7.1708 C.ar        1 O2N      -0.0392
     15 C15       -20.7021   45.9701   -2.3907 C.ar        1 O2N       0.0566
     16 C16       -18.7619   52.3371   -3.3632 C.ar        1 O2N       0.0376
     17 C17       -16.5373   45.2087   -3.4678 C.ar        1 O2N      -0.0192
     18 C18       -17.2575   46.1669   -5.6472 C.ar        1 O2N      -0.0192
     19 C19       -21.3804   47.1057   -2.9422 C.ar        1 O2N       0.0220
     20 C20       -19.1012   51.1356   -4.0638 C.ar        1 O2N      -0.0032
     21 C21       -16.3958   51.7464   -3.5164 C.ar        1 O2N       0.1200
     22 C22       -17.4000   52.5975   -3.0876 C.ar        1 O2N       0.1327
     23 C23       -14.5251   45.1189   -1.4669 C.ar        1 O2N       0.0839
     24 C24       -16.4381   48.0223   -7.6631 C.ar        1 O2N       0.0839
     25 C25       -22.9735   49.6372   -0.8083 C.2         1 O2N      -0.1125
     26 C26       -21.6784   49.3100   -0.9250 C.2         1 O2N      -0.0447
     27 C27       -19.3701   45.6396   -2.6720 C.2         1 O2N       0.2037
     28 C28       -19.7144   53.2811   -2.9134 C.2         1 O2N       0.0515
     29 C29       -15.4679   53.4172   -2.5077 C.3         1 O2N       0.1864
     30 C30       -12.4252   45.8154   -0.6083 C.3         1 O2N       0.0579
     31 C31       -15.3225   50.0621   -7.9457 C.3         1 O2N       0.0579
     32 C32       -20.6992   48.2061   -3.6994 C.3         1 O2N       0.0086
     33 C33       -20.5116   50.6567   -4.2788 C.3         1 O2N       0.0003
     34 C34       -20.7989   49.9728   -1.8675 C.3         1 O2N      -0.0011
     35 C35       -17.6334   45.2576   -4.4996 C.3         1 O2N       0.0982
     36 N36       -18.9477   45.5355   -3.9366 N.am        1 O2N      -0.2653
     37 N37       -21.0504   49.6200   -3.3140 N.4         1 O2N       0.2715
     38 O38       -19.6680   53.7827   -1.6579 O.co2       1 O2N      -0.5668
     39 O39       -18.6386   45.3248   -1.7417 O.2         1 O2N      -0.3883
     40 O40       -20.4944   53.9357   -3.8042 O.co2       1 O2N      -0.5668
     41 O41       -15.1694   52.1745   -3.1687 O.3         1 O2N      -0.2947
     42 O42       -16.8842   53.6530   -2.4309 O.3         1 O2N      -0.2890
     43 O43       -13.6131   45.0232   -0.4477 O.3         1 O2N      -0.3255
     44 O44       -16.0291   48.9687   -8.5651 O.3         1 O2N      -0.3255
     45 H1        -23.3011   44.6833   -0.6455 H           1 O2N       0.0572
     46 H2        -24.4978   46.4518   -1.7907 H           1 O2N       0.0635
     47 H3        -20.9834   44.2960   -1.0909 H           1 O2N       0.0651
     48 H4        -23.2991   47.9785   -3.2013 H           1 O2N       0.0570
     49 H5        -18.2523   49.4364   -5.0298 H           1 O2N       0.0445
     50 H6        -16.5792   47.2774   -3.0086 H           1 O2N       0.0534
     51 H7        -16.1172   43.1269   -3.6449 H           1 O2N       0.0534
     52 H8        -19.1533   47.0857   -5.9730 H           1 O2N       0.0534
     53 H9        -15.2579   45.4581   -5.8626 H           1 O2N       0.0534
     54 H10       -15.9526   49.9680   -4.5727 H           1 O2N       0.0514
     55 H11       -14.9032   47.1952   -1.2849 H           1 O2N       0.0526
     56 H12       -14.4142   43.0625   -1.9491 H           1 O2N       0.0526
     57 H13       -18.4582   48.6321   -7.6389 H           1 O2N       0.0526
     58 H14       -14.5718   47.0476   -7.5069 H           1 O2N       0.0526
     59 H15       -23.5449   49.1801   -0.1427 H           1 O2N       0.0292
     60 H16       -23.3764   50.3435   -1.3777 H           1 O2N       0.0292
     61 H17       -21.3077   48.6042   -0.3353 H           1 O2N       0.0725
     62 H18       -15.0022   54.2392   -3.0564 H           1 O2N       0.0973
     63 H19       -15.0504   53.4008   -1.4995 H           1 O2N       0.0973
     64 H20       -11.7546   45.6010    0.2278 H           1 O2N       0.0575
     65 H21       -12.6644   46.8812   -0.5924 H           1 O2N       0.0575
     66 H22       -11.9129   45.5585   -1.5387 H           1 O2N       0.0575
     67 H23       -15.0421   50.7702   -8.7240 H           1 O2N       0.0575
     68 H24       -14.4080   49.7170   -7.4556 H           1 O2N       0.0575
     69 H25       -15.9491   50.5861   -7.2178 H           1 O2N       0.0575
     70 H26       -20.9698   48.0416   -4.7470 H           1 O2N       0.0995
     71 H27       -19.6185   48.1158   -3.6217 H           1 O2N       0.0995
     72 H28       -20.5969   50.3201   -5.3157 H           1 O2N       0.0966
     73 H29       -21.2092   51.4912   -4.2094 H           1 O2N       0.0966
     74 H30       -19.7563   49.7577   -1.6200 H           1 O2N       0.0998
     75 H31       -20.9483   51.0444   -1.7022 H           1 O2N       0.0998
     76 H32       -17.7333   44.2692   -4.9591 H           1 O2N       0.0837
     77 H33       -19.6510   45.6449   -4.5974 H           1 O2N       0.1893
     78 H34       -22.0653   49.6797   -3.4377 H           1 O2N       0.2082
@<TRIPOS>BOND
     1     1     2  ar
     2     3     1  ar
     3     4     2  ar
     4    15     3  ar
     5    19     4  ar
     6     5    10  ar
     7    20     5  ar
     8     6    11  ar
     9    17     6  ar
    10     7    12  ar
    11    17     7  ar
    12     8    13  ar
    13    18     8  ar
    14     9    14  ar
    15    18     9  ar
    16    10    21  ar
    17    11    23  ar
    18    12    23  ar
    19    13    24  ar
    20    14    24  ar
    21    15    19  ar
    22    27    15   1
    23    20    16  ar
    24    16    22  ar
    25    16    28   1
    26    35    17   1
    27    35    18   1
    28    19    32   1
    29    33    20   1
    30    22    21  ar
    31    21    41   1
    32    22    42   1
    33    23    43   1
    34    24    44   1
    35    26    25   2
    36    34    26   1
    37    36    27  am
    38    27    39   2
    39    28    38  ar
    40    28    40  ar
    41    29    41   1
    42    42    29   1
    43    43    30   1
    44    44    31   1
    45    32    37   1
    46    37    33   1
    47    37    34   1
    48    35    36   1
    49     1    45   1
    50     2    46   1
    51     3    47   1
    52     4    48   1
    53     5    49   1
    54     6    50   1
    55     7    51   1
    56     8    52   1
    57     9    53   1
    58    10    54   1
    59    11    55   1
    60    12    56   1
    61    13    57   1
    62    14    58   1
    63    25    59   1
    64    25    60   1
    65    26    61   1
    66    29    62   1
    67    29    63   1
    68    30    64   1
    69    30    65   1
    70    30    66   1
    71    31    67   1
    72    31    68   1
    73    31    69   1
    74    32    70   1
    75    32    71   1
    76    33    72   1
    77    33    73   1
    78    34    74   1
    79    34    75   1
    80    35    76   1
    81    36    77   1
    82    37    78   1
@<TRIPOS>SUBSTRUCTURE
     1  O2N      1

