@<TRIPOS>MOLECULE
3zso_ligand_019
    78    82
SMALL
GAST_HUCK
****
This file was generated by PARSER (from files_GN.cpp)

@<TRIPOS>ATOM
      1 C1        -12.1348   41.7094   -1.7961 C.ar        1 O2N      -0.0630
      2 C2        -10.8302   42.2071   -1.9027 C.ar        1 O2N      -0.0640
      3 C3        -13.2250   42.5576   -2.0612 C.ar        1 O2N      -0.0483
      4 C4        -10.6190   43.5618   -2.2176 C.ar        1 O2N      -0.0493
      5 C5         -9.7129   48.2492    1.0100 C.ar        1 O2N      -0.0712
      6 C6        -15.4976   45.8208   -6.4158 C.ar        1 O2N      -0.0648
      7 C7        -16.0929   47.2885   -4.5808 C.ar        1 O2N      -0.0648
      8 C8        -18.4565   45.5447   -3.5371 C.ar        1 O2N      -0.0648
      9 C9        -17.1592   44.2774   -1.9251 C.ar        1 O2N      -0.0648
     10 C10        -9.9830   49.2824    1.9171 C.ar        1 O2N      -0.0449
     11 C11       -15.2991   46.9382   -7.2421 C.ar        1 O2N      -0.0392
     12 C12       -15.8839   48.4116   -5.4079 C.ar        1 O2N      -0.0392
     13 C13       -19.4819   45.7109   -2.5881 C.ar        1 O2N      -0.0392
     14 C14       -18.1892   44.4281   -0.9807 C.ar        1 O2N      -0.0392
     15 C15       -13.0337   43.9198   -2.4177 C.ar        1 O2N       0.0566
     16 C16       -11.9550   47.2709    1.3515 C.ar        1 O2N       0.0376
     17 C17       -15.9201   45.9705   -5.0727 C.ar        1 O2N      -0.0192
     18 C18       -17.2563   44.8597   -3.2129 C.ar        1 O2N      -0.0192
     19 C19       -11.7058   44.4523   -2.4292 C.ar        1 O2N       0.0220
     20 C20       -10.6835   47.2572    0.6785 C.ar        1 O2N      -0.0032
     21 C21       -11.2423   49.3249    2.5175 C.ar        1 O2N       0.1200
     22 C22       -12.1922   48.3479    2.2504 C.ar        1 O2N       0.1327
     23 C23       -15.4856   48.2477   -6.7548 C.ar        1 O2N       0.0839
     24 C24       -19.3500   45.1631   -1.3003 C.ar        1 O2N       0.0839
     25 C25       -12.2514   48.9720   -1.2887 C.2         1 O2N      -0.1125
     26 C26       -11.0352   49.1045   -1.8273 C.2         1 O2N      -0.0447
     27 C27       -14.1728   44.6341   -2.7704 C.2         1 O2N       0.2037
     28 C28       -13.0001   46.2964    1.1944 C.2         1 O2N       0.0515
     29 C29       -13.0557   49.9056    3.5007 C.3         1 O2N       0.1864
     30 C30       -15.1843   50.6222   -7.2456 C.3         1 O2N       0.0579
     31 C31       -20.9651   44.3064    0.1975 C.3         1 O2N       0.0579
     32 C32       -11.3734   45.8885   -2.7047 C.3         1 O2N       0.0086
     33 C33       -10.2578   46.2559   -0.3561 C.3         1 O2N       0.0003
     34 C34       -10.1257   48.0322   -2.2242 C.3         1 O2N      -0.0011
     35 C35       -16.1754   44.7426   -4.2464 C.3         1 O2N       0.0982
     36 N36       -14.9221   44.2141   -3.7864 N.am        1 O2N      -0.2653
     37 N37       -10.3551   46.5924   -1.8327 N.4         1 O2N       0.2715
     38 O38       -14.1387   46.3212    1.9302 O.co2       1 O2N      -0.5668
     39 O39       -14.5534   45.5567   -2.0608 O.2         1 O2N      -0.3883
     40 O40       -12.9825   45.2860    0.3001 O.co2       1 O2N      -0.5668
     41 O41       -11.6643   50.2449    3.4028 O.3         1 O2N      -0.2947
     42 O42       -13.3065   48.5962    2.9664 O.3         1 O2N      -0.2890
     43 O43       -15.2523   49.2522   -7.6676 O.3         1 O2N      -0.3255
     44 O44       -20.3000   45.4501   -0.3575 O.3         1 O2N      -0.3255
     45 H1        -12.2915   40.7269   -1.5400 H           1 O2N       0.0572
     46 H2        -10.0322   41.5885   -1.7295 H           1 O2N       0.0635
     47 H3        -14.1657   42.1636   -1.9756 H           1 O2N       0.0651
     48 H4         -9.6555   43.9001   -2.2625 H           1 O2N       0.0570
     49 H5         -8.7832   48.2283    0.5841 H           1 O2N       0.0445
     50 H6        -15.3369   44.8893   -6.8053 H           1 O2N       0.0534
     51 H7        -16.3783   47.4462   -3.6102 H           1 O2N       0.0534
     52 H8        -18.5869   45.9527   -4.4659 H           1 O2N       0.0534
     53 H9        -16.3435   43.7243   -1.6596 H           1 O2N       0.0534
     54 H10        -9.2805   49.9905    2.1282 H           1 O2N       0.0514
     55 H11       -15.0225   46.7928   -8.2144 H           1 O2N       0.0526
     56 H12       -16.0269   49.3468   -5.0182 H           1 O2N       0.0526
     57 H13       -20.3210   46.2425   -2.8352 H           1 O2N       0.0526
     58 H14       -18.0849   44.0022   -0.0583 H           1 O2N       0.0526
     59 H15       -12.7978   49.7836   -1.0937 H           1 O2N       0.0292
     60 H16       -12.6460   48.0803   -1.0971 H           1 O2N       0.0292
     61 H17       -10.7310   50.0359   -2.0229 H           1 O2N       0.0725
     62 H18       -13.6430   50.6415    2.9440 H           1 O2N       0.0973
     63 H19       -13.3649   49.9295    4.5464 H           1 O2N       0.0973
     64 H20       -15.0368   51.2434   -8.1338 H           1 O2N       0.0575
     65 H21       -14.3408   50.7825   -6.5696 H           1 O2N       0.0575
     66 H22       -16.1107   50.9329   -6.7611 H           1 O2N       0.0575
     67 H23       -21.7554   44.6659    0.8584 H           1 O2N       0.0575
     68 H24       -20.2756   43.7019    0.7897 H           1 O2N       0.0575
     69 H25       -21.4227   43.6881   -0.5790 H           1 O2N       0.0575
     70 H26       -12.2769   46.4868   -2.7489 H           1 O2N       0.0995
     71 H27       -10.9746   45.8989   -3.7255 H           1 O2N       0.0995
     72 H28       -10.6897   45.2898   -0.1334 H           1 O2N       0.0966
     73 H29        -9.1920   46.0602   -0.1929 H           1 O2N       0.0966
     74 H30        -9.1283   48.3001   -1.8640 H           1 O2N       0.0998
     75 H31       -10.0536   48.0916   -3.3149 H           1 O2N       0.0998
     76 H32       -16.5652   43.9753   -4.9211 H           1 O2N       0.0837
     77 H33       -14.5903   43.4435   -4.2738 H           1 O2N       0.1893
     78 H34        -9.4991   46.1495   -2.1749 H           1 O2N       0.2082
@<TRIPOS>BOND
     1     1     2  ar
     2     3     1  ar
     3     4     2  ar
     4    15     3  ar
     5    19     4  ar
     6     5    10  ar
     7    20     5  ar
     8     6    11  ar
     9    17     6  ar
    10     7    12  ar
    11    17     7  ar
    12     8    13  ar
    13    18     8  ar
    14     9    14  ar
    15    18     9  ar
    16    10    21  ar
    17    11    23  ar
    18    12    23  ar
    19    13    24  ar
    20    14    24  ar
    21    15    19  ar
    22    27    15   1
    23    20    16  ar
    24    16    22  ar
    25    16    28   1
    26    35    17   1
    27    35    18   1
    28    19    32   1
    29    33    20   1
    30    22    21  ar
    31    21    41   1
    32    22    42   1
    33    23    43   1
    34    24    44   1
    35    26    25   2
    36    34    26   1
    37    36    27  am
    38    27    39   2
    39    28    38  ar
    40    28    40  ar
    41    29    41   1
    42    42    29   1
    43    43    30   1
    44    44    31   1
    45    32    37   1
    46    37    33   1
    47    37    34   1
    48    35    36   1
    49     1    45   1
    50     2    46   1
    51     3    47   1
    52     4    48   1
    53     5    49   1
    54     6    50   1
    55     7    51   1
    56     8    52   1
    57     9    53   1
    58    10    54   1
    59    11    55   1
    60    12    56   1
    61    13    57   1
    62    14    58   1
    63    25    59   1
    64    25    60   1
    65    26    61   1
    66    29    62   1
    67    29    63   1
    68    30    64   1
    69    30    65   1
    70    30    66   1
    71    31    67   1
    72    31    68   1
    73    31    69   1
    74    32    70   1
    75    32    71   1
    76    33    72   1
    77    33    73   1
    78    34    74   1
    79    34    75   1
    80    35    76   1
    81    36    77   1
    82    37    78   1
@<TRIPOS>SUBSTRUCTURE
     1  O2N      1

