@<TRIPOS>MOLECULE
3zso_ligand_021
    78    82
SMALL
GAST_HUCK
****
This file was generated by PARSER (from files_GN.cpp)

@<TRIPOS>ATOM
      1 C1        -15.9661   46.9607   -6.9014 C.ar        1 O2N      -0.0630
      2 C2        -15.6600   45.8024   -6.1768 C.ar        1 O2N      -0.0640
      3 C3        -16.4310   48.0994   -6.2287 C.ar        1 O2N      -0.0483
      4 C4        -15.8045   45.7919   -4.7814 C.ar        1 O2N      -0.0493
      5 C5        -12.3909   45.0589   -2.3315 C.ar        1 O2N      -0.0712
      6 C6        -15.2270   53.4191   -3.1339 C.ar        1 O2N      -0.0648
      7 C7        -14.9909   51.7348   -1.4085 C.ar        1 O2N      -0.0648
      8 C8        -19.3010   51.9111   -3.2268 C.ar        1 O2N      -0.0648
      9 C9        -18.2661   51.4135   -1.0893 C.ar        1 O2N      -0.0648
     10 C10       -10.9902   44.9961   -2.2427 C.ar        1 O2N      -0.0449
     11 C11       -14.1491   54.1383   -2.5845 C.ar        1 O2N      -0.0392
     12 C12       -13.9195   52.4591   -0.8497 C.ar        1 O2N      -0.0392
     13 C13       -20.5627   51.9811   -2.6057 C.ar        1 O2N      -0.0392
     14 C14       -19.5244   51.4978   -0.4630 C.ar        1 O2N      -0.0392
     15 C15       -16.6205   48.1029   -4.8178 C.ar        1 O2N       0.0566
     16 C16       -12.5581   45.5385    0.0747 C.ar        1 O2N       0.0376
     17 C17       -15.6690   52.1928   -2.5667 C.ar        1 O2N      -0.0192
     18 C18       -18.1257   51.6214   -2.4822 C.ar        1 O2N      -0.0192
     19 C19       -16.2890   46.9250   -4.0755 C.ar        1 O2N       0.0220
     20 C20       -13.2028   45.3132   -1.1885 C.ar        1 O2N      -0.0032
     21 C21       -10.3829   45.2009   -0.9997 C.ar        1 O2N       0.1200
     22 C22       -11.1432   45.4649    0.1285 C.ar        1 O2N       0.1327
     23 C23       -13.4741   53.6526   -1.4480 C.ar        1 O2N       0.0839
     24 C24       -20.6856   51.7734   -1.2172 C.ar        1 O2N       0.0839
     25 C25       -13.2814   49.1485    0.3295 C.2         1 O2N      -0.1125
     26 C26       -13.6277   48.3040   -0.6485 C.2         1 O2N      -0.0447
     27 C27       -17.1818   49.2563   -4.2764 C.2         1 O2N       0.2037
     28 C28       -13.2392   45.9066    1.2627 C.2         1 O2N       0.0515
     29 C29        -9.0276   45.5233    0.6495 C.3         1 O2N       0.1864
     30 C30       -11.1463   53.9498   -1.2916 C.3         1 O2N       0.0579
     31 C31       -22.4908   53.0271   -0.3631 C.3         1 O2N       0.0579
     32 C32       -16.4668   46.7785   -2.5976 C.3         1 O2N       0.0086
     33 C33       -14.6797   45.4023   -1.4342 C.3         1 O2N       0.0003
     34 C34       -14.9866   47.8114   -0.8165 C.3         1 O2N      -0.0011
     35 C35       -16.8099   51.4364   -3.1919 C.3         1 O2N       0.0982
     36 N36       -16.5005   50.0475   -3.4439 N.am        1 O2N      -0.2653
     37 N37       -15.1249   46.7678   -1.8948 N.4         1 O2N       0.2715
     38 O38       -14.3661   45.2953    1.6820 O.co2       1 O2N      -0.5668
     39 O39       -18.2440   49.6361   -4.7625 O.2         1 O2N      -0.3883
     40 O40       -12.7452   46.8778    2.0687 O.co2       1 O2N      -0.5668
     41 O41        -9.0629   45.1647   -0.7419 O.3         1 O2N      -0.2947
     42 O42       -10.3481   45.6140    1.2133 O.3         1 O2N      -0.2890
     43 O43       -12.4568   54.3813   -0.8865 O.3         1 O2N      -0.3255
     44 O44       -21.9175   51.7342   -0.6138 O.3         1 O2N      -0.3255
     45 H1        -15.8609   46.9728   -7.9187 H           1 O2N       0.0572
     46 H2        -15.3425   44.9626   -6.6650 H           1 O2N       0.0635
     47 H3        -16.6371   48.9359   -6.7853 H           1 O2N       0.0651
     48 H4        -15.5835   44.9249   -4.2873 H           1 O2N       0.0570
     49 H5        -12.8211   44.9204   -3.2503 H           1 O2N       0.0445
     50 H6        -15.6954   53.8053   -3.9582 H           1 O2N       0.0534
     51 H7        -15.2737   50.8700   -0.9515 H           1 O2N       0.0534
     52 H8        -19.2567   52.0403   -4.2429 H           1 O2N       0.0534
     53 H9        -17.4542   51.1625   -0.5177 H           1 O2N       0.0534
     54 H10       -10.4230   44.8079   -3.0727 H           1 O2N       0.0514
     55 H11       -13.8611   55.0197   -3.0140 H           1 O2N       0.0526
     56 H12       -13.4607   52.1151   -0.0037 H           1 O2N       0.0526
     57 H13       -21.3972   52.1431   -3.1735 H           1 O2N       0.0526
     58 H14       -19.6015   51.3395    0.5454 H           1 O2N       0.0526
     59 H15       -12.3538   49.4954    0.3859 H           1 O2N       0.0292
     60 H16       -13.9386   49.4398    1.0120 H           1 O2N       0.0292
     61 H17       -12.9320   48.0451   -1.3109 H           1 O2N       0.0725
     62 H18        -8.5275   46.4886    0.7583 H           1 O2N       0.0973
     63 H19        -8.4510   44.7750    1.1971 H           1 O2N       0.0973
     64 H20       -10.4148   54.5750   -0.7787 H           1 O2N       0.0575
     65 H21       -11.0013   54.0691   -2.3686 H           1 O2N       0.0575
     66 H22       -10.9600   52.9097   -1.0100 H           1 O2N       0.0575
     67 H23       -23.4476   52.8731    0.1376 H           1 O2N       0.0575
     68 H24       -22.6771   53.5698   -1.2942 H           1 O2N       0.0575
     69 H25       -21.8513   53.6257    0.2918 H           1 O2N       0.0575
     70 H26       -17.0376   45.8633   -2.4069 H           1 O2N       0.0995
     71 H27       -17.1174   47.5739   -2.2335 H           1 O2N       0.0995
     72 H28       -15.2681   45.1172   -0.5607 H           1 O2N       0.0966
     73 H29       -14.9223   44.6441   -2.1849 H           1 O2N       0.0966
     74 H30       -15.5749   48.6919   -1.0671 H           1 O2N       0.0998
     75 H31       -15.3718   47.4324    0.1373 H           1 O2N       0.0998
     76 H32       -16.9244   51.8501   -4.2050 H           1 O2N       0.0837
     77 H33       -15.6443   49.7141   -3.1307 H           1 O2N       0.1893
     78 H34       -14.4681   47.0658   -2.6185 H           1 O2N       0.2082
@<TRIPOS>BOND
     1     1     2  ar
     2     3     1  ar
     3     4     2  ar
     4    15     3  ar
     5    19     4  ar
     6     5    10  ar
     7    20     5  ar
     8     6    11  ar
     9    17     6  ar
    10     7    12  ar
    11    17     7  ar
    12     8    13  ar
    13    18     8  ar
    14     9    14  ar
    15    18     9  ar
    16    10    21  ar
    17    11    23  ar
    18    12    23  ar
    19    13    24  ar
    20    14    24  ar
    21    15    19  ar
    22    27    15   1
    23    20    16  ar
    24    16    22  ar
    25    16    28   1
    26    35    17   1
    27    35    18   1
    28    19    32   1
    29    33    20   1
    30    22    21  ar
    31    21    41   1
    32    22    42   1
    33    23    43   1
    34    24    44   1
    35    26    25   2
    36    34    26   1
    37    36    27  am
    38    27    39   2
    39    28    38  ar
    40    28    40  ar
    41    29    41   1
    42    42    29   1
    43    43    30   1
    44    44    31   1
    45    32    37   1
    46    37    33   1
    47    37    34   1
    48    35    36   1
    49     1    45   1
    50     2    46   1
    51     3    47   1
    52     4    48   1
    53     5    49   1
    54     6    50   1
    55     7    51   1
    56     8    52   1
    57     9    53   1
    58    10    54   1
    59    11    55   1
    60    12    56   1
    61    13    57   1
    62    14    58   1
    63    25    59   1
    64    25    60   1
    65    26    61   1
    66    29    62   1
    67    29    63   1
    68    30    64   1
    69    30    65   1
    70    30    66   1
    71    31    67   1
    72    31    68   1
    73    31    69   1
    74    32    70   1
    75    32    71   1
    76    33    72   1
    77    33    73   1
    78    34    74   1
    79    34    75   1
    80    35    76   1
    81    36    77   1
    82    37    78   1
@<TRIPOS>SUBSTRUCTURE
     1  O2N      1

