@<TRIPOS>MOLECULE
3zso_ligand_088
    78    82
SMALL
GAST_HUCK
****
This file was generated by PARSER (from files_GN.cpp)

@<TRIPOS>ATOM
      1 C1        -17.3849   44.8146   -3.1816 C.ar        1 O2N      -0.0630
      2 C2        -16.6013   44.4574   -4.2883 C.ar        1 O2N      -0.0640
      3 C3        -16.7881   45.4036   -2.0586 C.ar        1 O2N      -0.0483
      4 C4        -15.2148   44.7019   -4.2710 C.ar        1 O2N      -0.0493
      5 C5         -8.9604   44.0962   -2.0084 C.ar        1 O2N      -0.0712
      6 C6        -13.6966   50.7548   -1.1894 C.ar        1 O2N      -0.0648
      7 C7        -15.8624   50.5864   -0.1208 C.ar        1 O2N      -0.0648
      8 C8        -11.8618   48.0733   -0.2887 C.ar        1 O2N      -0.0648
      9 C9        -12.7019   48.5869    1.9333 C.ar        1 O2N      -0.0648
     10 C10        -7.8592   43.3261   -1.6062 C.ar        1 O2N      -0.0449
     11 C11       -13.9646   52.0946   -1.5287 C.ar        1 O2N      -0.0392
     12 C12       -16.1445   51.9197   -0.4763 C.ar        1 O2N      -0.0392
     13 C13       -10.5659   47.9348    0.2348 C.ar        1 O2N      -0.0392
     14 C14       -11.4120   48.4262    2.4606 C.ar        1 O2N      -0.0392
     15 C15       -15.3924   45.6615   -2.0273 C.ar        1 O2N       0.0566
     16 C16       -10.0868   43.6943    0.1483 C.ar        1 O2N       0.0376
     17 C17       -14.6207   49.9819   -0.4405 C.ar        1 O2N      -0.0192
     18 C18       -12.9565   48.4024    0.5480 C.ar        1 O2N      -0.0192
     19 C19       -14.5899   45.2951   -3.1461 C.ar        1 O2N       0.0220
     20 C20       -10.0829   44.2905   -1.1571 C.ar        1 O2N      -0.0032
     21 C21        -7.8698   42.7460   -0.3326 C.ar        1 O2N       0.1200
     22 C22        -8.9493   42.9280    0.5194 C.ar        1 O2N       0.1327
     23 C23       -15.1813   52.6914   -1.1470 C.ar        1 O2N       0.0839
     24 C24       -10.3359   48.0851    1.6155 C.ar        1 O2N       0.0839
     25 C25       -12.4036   41.5211   -1.6864 C.2         1 O2N      -0.1125
     26 C26       -11.6058   42.1117   -2.5852 C.2         1 O2N      -0.0447
     27 C27       -14.8978   46.3475   -0.9338 C.2         1 O2N       0.2037
     28 C28       -11.1627   43.8205    1.0738 C.2         1 O2N       0.0515
     29 C29        -7.4718   41.6224    1.4690 C.3         1 O2N       0.1864
     30 C30       -15.1364   54.9148   -0.4134 C.3         1 O2N       0.0579
     31 C31        -8.6836   46.5642    2.2483 C.3         1 O2N       0.0579
     32 C32       -13.1164   45.5421   -3.1888 C.3         1 O2N       0.0086
     33 C33       -11.1809   45.1615   -1.6892 C.3         1 O2N       0.0003
     34 C34       -11.9613   43.3293   -3.2990 C.3         1 O2N      -0.0011
     35 C35       -14.3439   48.5711    0.0037 C.3         1 O2N       0.0982
     36 N36       -14.6784   47.6547   -1.0504 N.am        1 O2N      -0.2653
     37 N37       -12.3263   44.5033   -2.4270 N.4         1 O2N       0.2715
     38 O38       -11.0691   43.3719    2.3470 O.co2       1 O2N      -0.5668
     39 O39       -14.8119   45.7600    0.1373 O.2         1 O2N      -0.3883
     40 O40       -12.4028   44.2018    0.6913 O.co2       1 O2N      -0.5668
     41 O41        -6.8940   41.9923    0.2057 O.3         1 O2N      -0.2947
     42 O42        -8.7336   42.2764    1.6822 O.3         1 O2N      -0.2890
     43 O43       -15.4340   53.9954   -1.4791 O.3         1 O2N      -0.3255
     44 O44        -9.0807   47.9396    2.1361 O.3         1 O2N      -0.3255
     45 H1        -18.3967   44.6585   -3.2016 H           1 O2N       0.0572
     46 H2        -17.0375   44.0265   -5.1090 H           1 O2N       0.0635
     47 H3        -17.3868   45.6612   -1.2731 H           1 O2N       0.0651
     48 H4        -14.6728   44.4396   -5.0945 H           1 O2N       0.0570
     49 H5         -8.9335   44.5087   -2.9446 H           1 O2N       0.0445
     50 H6        -12.8063   50.3619   -1.4924 H           1 O2N       0.0534
     51 H7        -16.5792   50.0587    0.3775 H           1 O2N       0.0534
     52 H8        -12.0026   47.9478   -1.2959 H           1 O2N       0.0534
     53 H9        -13.4626   48.8579    2.5666 H           1 O2N       0.0534
     54 H10        -7.0697   43.1952   -2.2373 H           1 O2N       0.0514
     55 H11       -13.2707   52.6372   -2.0483 H           1 O2N       0.0526
     56 H12       -17.0483   52.3299   -0.2274 H           1 O2N       0.0526
     57 H13        -9.7900   47.7090   -0.3874 H           1 O2N       0.0526
     58 H14       -11.2518   48.5592    3.4640 H           1 O2N       0.0526
     59 H15       -12.1113   40.6872   -1.2359 H           1 O2N       0.0292
     60 H16       -13.2863   41.9039   -1.4465 H           1 O2N       0.0292
     61 H17       -10.7352   41.6795   -2.7982 H           1 O2N       0.0725
     62 H18        -6.7851   41.8962    2.2756 H           1 O2N       0.0973
     63 H19        -7.6251   40.5391    1.4901 H           1 O2N       0.0973
     64 H20       -15.3311   55.9245   -0.7742 H           1 O2N       0.0575
     65 H21       -14.0868   54.8585   -0.1111 H           1 O2N       0.0575
     66 H22       -15.7751   54.7355    0.4558 H           1 O2N       0.0575
     67 H23        -7.7024   46.5426    2.7220 H           1 O2N       0.0575
     68 H24        -8.6022   46.0973    1.2614 H           1 O2N       0.0575
     69 H25        -9.3796   45.9918    2.8706 H           1 O2N       0.0575
     70 H26       -12.9496   46.5476   -2.7897 H           1 O2N       0.0995
     71 H27       -12.7564   45.5897   -4.2209 H           1 O2N       0.0995
     72 H28       -10.7347   45.9388   -2.3264 H           1 O2N       0.0966
     73 H29       -11.6082   45.6928   -0.8302 H           1 O2N       0.0966
     74 H30       -12.8043   43.0611   -3.9415 H           1 O2N       0.0998
     75 H31       -11.1433   43.6132   -3.9660 H           1 O2N       0.0998
     76 H32       -15.0478   48.3369    0.8135 H           1 O2N       0.0837
     77 H33       -14.8189   48.0393   -1.9296 H           1 O2N       0.1893
     78 H34       -12.9562   44.1299   -1.7131 H           1 O2N       0.2082
@<TRIPOS>BOND
     1     1     2  ar
     2     3     1  ar
     3     4     2  ar
     4    15     3  ar
     5    19     4  ar
     6     5    10  ar
     7    20     5  ar
     8     6    11  ar
     9    17     6  ar
    10     7    12  ar
    11    17     7  ar
    12     8    13  ar
    13    18     8  ar
    14     9    14  ar
    15    18     9  ar
    16    10    21  ar
    17    11    23  ar
    18    12    23  ar
    19    13    24  ar
    20    14    24  ar
    21    15    19  ar
    22    27    15   1
    23    20    16  ar
    24    16    22  ar
    25    16    28   1
    26    35    17   1
    27    35    18   1
    28    19    32   1
    29    33    20   1
    30    22    21  ar
    31    21    41   1
    32    22    42   1
    33    23    43   1
    34    24    44   1
    35    26    25   2
    36    34    26   1
    37    36    27  am
    38    27    39   2
    39    28    38  ar
    40    28    40  ar
    41    29    41   1
    42    42    29   1
    43    43    30   1
    44    44    31   1
    45    32    37   1
    46    37    33   1
    47    37    34   1
    48    35    36   1
    49     1    45   1
    50     2    46   1
    51     3    47   1
    52     4    48   1
    53     5    49   1
    54     6    50   1
    55     7    51   1
    56     8    52   1
    57     9    53   1
    58    10    54   1
    59    11    55   1
    60    12    56   1
    61    13    57   1
    62    14    58   1
    63    25    59   1
    64    25    60   1
    65    26    61   1
    66    29    62   1
    67    29    63   1
    68    30    64   1
    69    30    65   1
    70    30    66   1
    71    31    67   1
    72    31    68   1
    73    31    69   1
    74    32    70   1
    75    32    71   1
    76    33    72   1
    77    33    73   1
    78    34    74   1
    79    34    75   1
    80    35    76   1
    81    36    77   1
    82    37    78   1
@<TRIPOS>SUBSTRUCTURE
     1  O2N      1

