@<TRIPOS>MOLECULE
3zso_ligand_042
    78    82
SMALL
GAST_HUCK
****
This file was generated by PARSER (from files_GN.cpp)

@<TRIPOS>ATOM
      1 C1        -10.9802   47.1608    3.6010 C.ar        1 O2N      -0.0630
      2 C2        -11.0391   48.5412    3.3843 C.ar        1 O2N      -0.0640
      3 C3        -11.2517   46.2732    2.5491 C.ar        1 O2N      -0.0483
      4 C4        -11.3197   49.0268    2.0997 C.ar        1 O2N      -0.0493
      5 C5        -11.4412   52.9531   -1.1917 C.ar        1 O2N      -0.0712
      6 C6        -13.1345   45.4578   -3.1745 C.ar        1 O2N      -0.0648
      7 C7        -13.6042   43.4324   -1.9240 C.ar        1 O2N      -0.0648
      8 C8        -10.5786   42.1315   -2.2061 C.ar        1 O2N      -0.0648
      9 C9        -10.2615   42.9704    0.0466 C.ar        1 O2N      -0.0648
     10 C10       -11.0779   54.3110   -1.2192 C.ar        1 O2N      -0.0449
     11 C11       -14.4693   45.4950   -3.6203 C.ar        1 O2N      -0.0392
     12 C12       -14.9389   43.4687   -2.3629 C.ar        1 O2N      -0.0392
     13 C13       -10.0826   40.8748   -1.8086 C.ar        1 O2N      -0.0392
     14 C14        -9.7830   41.7125    0.4494 C.ar        1 O2N      -0.0392
     15 C15       -11.5478   46.7430    1.2426 C.ar        1 O2N       0.0566
     16 C16        -9.9438   52.4771   -3.0807 C.ar        1 O2N       0.0376
     17 C17       -12.6777   44.4370   -2.3059 C.ar        1 O2N      -0.0192
     18 C18       -10.7027   43.2010   -1.2815 C.ar        1 O2N      -0.0192
     19 C19       -11.5168   48.1527    0.9984 C.ar        1 O2N       0.0220
     20 C20       -10.8936   52.0177   -2.1122 C.ar        1 O2N      -0.0032
     21 C21       -10.1478   54.7405   -2.1722 C.ar        1 O2N       0.1200
     22 C22        -9.5938   53.8497   -3.0779 C.ar        1 O2N       0.1327
     23 C23       -15.3878   44.5196   -3.1852 C.ar        1 O2N       0.0839
     24 C24        -9.6895   40.6547   -0.4752 C.ar        1 O2N       0.0839
     25 C25        -8.2133   51.6679    0.1557 C.2         1 O2N      -0.1125
     26 C26        -8.7652   50.4662    0.3682 C.2         1 O2N      -0.0447
     27 C27       -11.9087   45.7841    0.2991 C.2         1 O2N       0.2037
     28 C28        -9.3025   51.6365   -4.0225 C.2         1 O2N       0.0515
     29 C29        -8.7140   55.8195   -3.3698 C.3         1 O2N       0.1864
     30 C30       -17.5525   45.2136   -2.6057 C.3         1 O2N       0.0579
     31 C31        -7.9147   39.2902    0.2651 C.3         1 O2N       0.0579
     32 C32       -11.7830   48.7883   -0.3285 C.3         1 O2N       0.0086
     33 C33       -11.3498   50.5992   -1.9728 C.3         1 O2N       0.0003
     34 C34        -9.4132   49.6784   -0.6657 C.3         1 O2N      -0.0011
     35 C35       -11.2818   44.5102   -1.7495 C.3         1 O2N       0.0982
     36 N36       -11.1788   45.5938   -0.7983 N.am        1 O2N      -0.2653
     37 N37       -10.8980   49.9553   -0.6937 N.4         1 O2N       0.2715
     38 O38        -8.0021   51.8175   -4.3460 O.co2       1 O2N      -0.5668
     39 O39       -12.8095   45.0025    0.5886 O.2         1 O2N      -0.3883
     40 O40       -10.0049   50.7698   -4.7863 O.co2       1 O2N      -0.5668
     41 O41        -9.7179   56.0017   -2.3583 O.3         1 O2N      -0.2947
     42 O42        -8.7609   54.4941   -3.9253 O.3         1 O2N      -0.2890
     43 O43       -16.6990   44.5740   -3.5741 O.3         1 O2N      -0.3255
     44 O44        -9.3019   39.3973   -0.0925 O.3         1 O2N      -0.3255
     45 H1        -10.7599   46.8055    4.5315 H           1 O2N       0.0572
     46 H2        -10.8733   49.1899    4.1580 H           1 O2N       0.0635
     47 H3        -11.2383   45.2704    2.7574 H           1 O2N       0.0651
     48 H4        -11.3661   50.0404    1.9761 H           1 O2N       0.0570
     49 H5        -12.1245   52.6519   -0.4917 H           1 O2N       0.0445
     50 H6        -12.4983   46.2005   -3.4697 H           1 O2N       0.0534
     51 H7        -13.3251   42.6798   -1.2898 H           1 O2N       0.0534
     52 H8        -10.8655   42.2566   -3.1807 H           1 O2N       0.0534
     53 H9        -10.2896   43.7083    0.7485 H           1 O2N       0.0534
     54 H10       -11.4894   54.9775   -0.5635 H           1 O2N       0.0514
     55 H11       -14.7776   46.2509   -4.2355 H           1 O2N       0.0526
     56 H12       -15.5969   42.7493   -2.0532 H           1 O2N       0.0526
     57 H13       -10.0205   40.1143   -2.4890 H           1 O2N       0.0526
     58 H14        -9.5027   41.5678    1.4213 H           1 O2N       0.0526
     59 H15        -7.8157   52.1722    0.9104 H           1 O2N       0.0292
     60 H16        -8.1940   52.0769   -0.7470 H           1 O2N       0.0292
     61 H17        -8.7578   50.1090    1.2953 H           1 O2N       0.0725
     62 H18        -7.7287   55.9862   -2.9268 H           1 O2N       0.0973
     63 H19        -8.8671   56.5512   -4.1656 H           1 O2N       0.0973
     64 H20       -18.5742   45.1795   -2.9839 H           1 O2N       0.0575
     65 H21       -17.2761   46.2612   -2.4619 H           1 O2N       0.0575
     66 H22       -17.5335   44.6993   -1.6406 H           1 O2N       0.0575
     67 H23        -7.6961   38.2435    0.4771 H           1 O2N       0.0575
     68 H24        -7.6977   39.8717    1.1645 H           1 O2N       0.0575
     69 H25        -7.2677   39.6190   -0.5523 H           1 O2N       0.0575
     70 H26       -12.8135   49.1452   -0.2638 H           1 O2N       0.0995
     71 H27       -11.7537   48.0621   -1.1416 H           1 O2N       0.0995
     72 H28       -11.0219   49.9671   -2.7963 H           1 O2N       0.0966
     73 H29       -12.4433   50.6225   -2.0259 H           1 O2N       0.0966
     74 H30        -9.2065   48.6225   -0.4700 H           1 O2N       0.0998
     75 H31        -8.9303   49.8920   -1.6246 H           1 O2N       0.0998
     76 H32       -10.6265   44.8089   -2.5747 H           1 O2N       0.0837
     77 H33       -10.4658   46.2315   -0.9581 H           1 O2N       0.1893
     78 H34       -11.0707   50.6514    0.0340 H           1 O2N       0.2082
@<TRIPOS>BOND
     1     1     2  ar
     2     3     1  ar
     3     4     2  ar
     4    15     3  ar
     5    19     4  ar
     6     5    10  ar
     7    20     5  ar
     8     6    11  ar
     9    17     6  ar
    10     7    12  ar
    11    17     7  ar
    12     8    13  ar
    13    18     8  ar
    14     9    14  ar
    15    18     9  ar
    16    10    21  ar
    17    11    23  ar
    18    12    23  ar
    19    13    24  ar
    20    14    24  ar
    21    15    19  ar
    22    27    15   1
    23    20    16  ar
    24    16    22  ar
    25    16    28   1
    26    35    17   1
    27    35    18   1
    28    19    32   1
    29    33    20   1
    30    22    21  ar
    31    21    41   1
    32    22    42   1
    33    23    43   1
    34    24    44   1
    35    26    25   2
    36    34    26   1
    37    36    27  am
    38    27    39   2
    39    28    38  ar
    40    28    40  ar
    41    29    41   1
    42    42    29   1
    43    43    30   1
    44    44    31   1
    45    32    37   1
    46    37    33   1
    47    37    34   1
    48    35    36   1
    49     1    45   1
    50     2    46   1
    51     3    47   1
    52     4    48   1
    53     5    49   1
    54     6    50   1
    55     7    51   1
    56     8    52   1
    57     9    53   1
    58    10    54   1
    59    11    55   1
    60    12    56   1
    61    13    57   1
    62    14    58   1
    63    25    59   1
    64    25    60   1
    65    26    61   1
    66    29    62   1
    67    29    63   1
    68    30    64   1
    69    30    65   1
    70    30    66   1
    71    31    67   1
    72    31    68   1
    73    31    69   1
    74    32    70   1
    75    32    71   1
    76    33    72   1
    77    33    73   1
    78    34    74   1
    79    34    75   1
    80    35    76   1
    81    36    77   1
    82    37    78   1
@<TRIPOS>SUBSTRUCTURE
     1  O2N      1

