@<TRIPOS>MOLECULE
3zso_ligand_054
    78    82
SMALL
GAST_HUCK
****
This file was generated by PARSER (from files_GN.cpp)

@<TRIPOS>ATOM
      1 C1        -20.8933   50.7939   -1.0800 C.ar        1 O2N      -0.0630
      2 C2        -21.3769   50.2911    0.1293 C.ar        1 O2N      -0.0640
      3 C3        -20.7072   49.9271   -2.1634 C.ar        1 O2N      -0.0483
      4 C4        -21.6696   48.9248    0.2414 C.ar        1 O2N      -0.0493
      5 C5        -24.0348   47.1879    2.3009 C.ar        1 O2N      -0.0712
      6 C6        -17.3096   49.1332   -5.1305 C.ar        1 O2N      -0.0648
      7 C7        -16.7794   47.0543   -6.2555 C.ar        1 O2N      -0.0648
      8 C8        -20.5650   45.8492   -6.4055 C.ar        1 O2N      -0.0648
      9 C9        -20.4096   48.2468   -6.7556 C.ar        1 O2N      -0.0648
     10 C10       -23.6685   47.8347    3.4978 C.ar        1 O2N      -0.0449
     11 C11       -16.0962   49.6917   -5.5746 C.ar        1 O2N      -0.0392
     12 C12       -15.5693   47.6156   -6.7150 C.ar        1 O2N      -0.0392
     13 C13       -21.5558   45.7660   -7.4006 C.ar        1 O2N      -0.0392
     14 C14       -21.3720   48.1629   -7.7756 C.ar        1 O2N      -0.0392
     15 C15       -20.9518   48.5229   -2.0743 C.ar        1 O2N       0.0566
     16 C16       -22.5847   45.2993    2.8531 C.ar        1 O2N       0.0376
     17 C17       -17.6722   47.7966   -5.4445 C.ar        1 O2N      -0.0192
     18 C18       -19.9700   47.0910   -6.0563 C.ar        1 O2N      -0.0192
     19 C19       -21.4756   48.0184   -0.8364 C.ar        1 O2N       0.0220
     20 C20       -23.4635   45.9446    1.9326 C.ar        1 O2N      -0.0032
     21 C21       -22.7378   47.2189    4.3454 C.ar        1 O2N       0.1200
     22 C22       -22.2107   45.9752    4.0329 C.ar        1 O2N       0.1327
     23 C23       -15.2231   48.9393   -6.3839 C.ar        1 O2N       0.0839
     24 C24       -21.9773   46.9252   -8.0875 C.ar        1 O2N       0.0839
     25 C25       -23.3035   43.4556   -2.1268 C.2         1 O2N      -0.1125
     26 C26       -23.0853   44.7256   -2.4952 C.2         1 O2N      -0.0447
     27 C27       -20.6712   47.7450   -3.2172 C.2         1 O2N       0.2037
     28 C28       -22.0547   44.0176    2.6432 C.2         1 O2N       0.0515
     29 C29       -21.4471   46.6031    5.9701 C.3         1 O2N       0.1864
     30 C30       -14.0750   50.4194   -7.8324 C.3         1 O2N       0.0579
     31 C31       -24.2417   47.2239   -8.6325 C.3         1 O2N       0.0579
     32 C32       -21.7664   46.5827   -0.5055 C.3         1 O2N       0.0086
     33 C33       -23.7723   45.4148    0.5695 C.3         1 O2N       0.0003
     34 C34       -23.7546   45.8783   -1.8991 C.3         1 O2N      -0.0011
     35 C35       -18.9503   47.1668   -4.9589 C.3         1 O2N       0.0982
     36 N36       -19.4614   47.8115   -3.7755 N.am        1 O2N      -0.2653
     37 N37       -23.2558   46.2968   -0.5411 N.4         1 O2N       0.2715
     38 O38       -22.8390   42.9198    2.7491 O.co2       1 O2N      -0.5668
     39 O39       -21.5458   47.0640   -3.7377 O.2         1 O2N      -0.3883
     40 O40       -20.8647   43.9073    2.0151 O.co2       1 O2N      -0.5668
     41 O41       -22.2681   47.6930    5.5125 O.3         1 O2N      -0.2947
     42 O42       -21.3494   45.5579    4.9841 O.3         1 O2N      -0.2890
     43 O43       -14.0101   49.4323   -6.7855 O.3         1 O2N      -0.3255
     44 O44       -22.9294   46.8213   -9.0702 O.3         1 O2N      -0.3255
     45 H1        -20.6857   51.7865   -1.1786 H           1 O2N       0.0572
     46 H2        -21.5083   50.9130    0.9292 H           1 O2N       0.0635
     47 H3        -20.3837   50.3538   -3.0392 H           1 O2N       0.0651
     48 H4        -22.0064   48.5916    1.1500 H           1 O2N       0.0570
     49 H5        -24.6945   47.6599    1.6765 H           1 O2N       0.0445
     50 H6        -17.9375   49.7236   -4.5793 H           1 O2N       0.0534
     51 H7        -16.9962   46.0934   -6.5224 H           1 O2N       0.0534
     52 H8        -20.2899   44.9916   -5.9254 H           1 O2N       0.0534
     53 H9        -20.0118   49.1658   -6.5377 H           1 O2N       0.0534
     54 H10       -24.0600   48.7512    3.7365 H           1 O2N       0.0514
     55 H11       -15.8571   50.6520   -5.3075 H           1 O2N       0.0526
     56 H12       -14.9267   47.0547   -7.2803 H           1 O2N       0.0526
     57 H13       -21.9829   44.8617   -7.6265 H           1 O2N       0.0526
     58 H14       -21.6491   49.0082   -8.2831 H           1 O2N       0.0526
     59 H15       -22.7929   42.7175   -2.5526 H           1 O2N       0.0292
     60 H16       -23.9610   43.2305   -1.4200 H           1 O2N       0.0292
     61 H17       -22.3998   44.8906   -3.1958 H           1 O2N       0.0725
     62 H18       -21.8759   46.1879    6.8859 H           1 O2N       0.0973
     63 H19       -20.4481   46.9810    6.1994 H           1 O2N       0.0973
     64 H20       -13.0579   50.5967   -8.1925 H           1 O2N       0.0575
     65 H21       -14.4759   51.3623   -7.4508 H           1 O2N       0.0575
     66 H22       -14.6799   50.0862   -8.6822 H           1 O2N       0.0575
     67 H23       -24.9345   47.0825   -9.4616 H           1 O2N       0.0575
     68 H24       -24.2597   48.2814   -8.3547 H           1 O2N       0.0575
     69 H25       -24.5873   46.6172   -7.7901 H           1 O2N       0.0575
     70 H26       -21.3673   46.3967    0.5004 H           1 O2N       0.0995
     71 H27       -21.2227   45.8922   -1.1493 H           1 O2N       0.0995
     72 H28       -24.8656   45.3287    0.5122 H           1 O2N       0.0966
     73 H29       -23.3704   44.4122    0.4142 H           1 O2N       0.0966
     74 H30       -24.8342   45.6928   -1.8424 H           1 O2N       0.0998
     75 H31       -23.6438   46.7233   -2.5830 H           1 O2N       0.0998
     76 H32       -18.7011   46.1524   -4.6307 H           1 O2N       0.0837
     77 H33       -18.8081   48.3186   -3.2752 H           1 O2N       0.1893
     78 H34       -23.7145   47.1969   -0.3803 H           1 O2N       0.2082
@<TRIPOS>BOND
     1     1     2  ar
     2     3     1  ar
     3     4     2  ar
     4    15     3  ar
     5    19     4  ar
     6     5    10  ar
     7    20     5  ar
     8     6    11  ar
     9    17     6  ar
    10     7    12  ar
    11    17     7  ar
    12     8    13  ar
    13    18     8  ar
    14     9    14  ar
    15    18     9  ar
    16    10    21  ar
    17    11    23  ar
    18    12    23  ar
    19    13    24  ar
    20    14    24  ar
    21    15    19  ar
    22    27    15   1
    23    20    16  ar
    24    16    22  ar
    25    16    28   1
    26    35    17   1
    27    35    18   1
    28    19    32   1
    29    33    20   1
    30    22    21  ar
    31    21    41   1
    32    22    42   1
    33    23    43   1
    34    24    44   1
    35    26    25   2
    36    34    26   1
    37    36    27  am
    38    27    39   2
    39    28    38  ar
    40    28    40  ar
    41    29    41   1
    42    42    29   1
    43    43    30   1
    44    44    31   1
    45    32    37   1
    46    37    33   1
    47    37    34   1
    48    35    36   1
    49     1    45   1
    50     2    46   1
    51     3    47   1
    52     4    48   1
    53     5    49   1
    54     6    50   1
    55     7    51   1
    56     8    52   1
    57     9    53   1
    58    10    54   1
    59    11    55   1
    60    12    56   1
    61    13    57   1
    62    14    58   1
    63    25    59   1
    64    25    60   1
    65    26    61   1
    66    29    62   1
    67    29    63   1
    68    30    64   1
    69    30    65   1
    70    30    66   1
    71    31    67   1
    72    31    68   1
    73    31    69   1
    74    32    70   1
    75    32    71   1
    76    33    72   1
    77    33    73   1
    78    34    74   1
    79    34    75   1
    80    35    76   1
    81    36    77   1
    82    37    78   1
@<TRIPOS>SUBSTRUCTURE
     1  O2N      1

