@<TRIPOS>MOLECULE
3zso_ligand_037
    78    82
SMALL
GAST_HUCK
****
This file was generated by PARSER (from files_GN.cpp)

@<TRIPOS>ATOM
      1 C1        -23.5589   45.0018   -5.8541 C.ar        1 O2N      -0.0630
      2 C2        -24.6823   44.8124   -5.0355 C.ar        1 O2N      -0.0640
      3 C3        -22.3494   45.4374   -5.2884 C.ar        1 O2N      -0.0483
      4 C4        -24.5847   45.0475   -3.6532 C.ar        1 O2N      -0.0493
      5 C5        -24.0276   47.0514    1.5218 C.ar        1 O2N      -0.0712
      6 C6        -20.5629   49.7044   -2.1994 C.ar        1 O2N      -0.0648
      7 C7        -18.2672   50.1391   -2.8728 C.ar        1 O2N      -0.0648
      8 C8        -17.1567   47.5611   -4.9048 C.ar        1 O2N      -0.0648
      9 C9        -19.0851   48.4942   -6.0499 C.ar        1 O2N      -0.0648
     10 C10       -23.3941   47.9943    2.3510 C.ar        1 O2N      -0.0449
     11 C11       -20.5884   50.9289   -1.5069 C.ar        1 O2N      -0.0392
     12 C12       -18.2917   51.3681   -2.1831 C.ar        1 O2N      -0.0392
     13 C13       -16.4255   47.5977   -6.0965 C.ar        1 O2N      -0.0392
     14 C14       -18.3708   48.5094   -7.2493 C.ar        1 O2N      -0.0392
     15 C15       -22.2320   45.6862   -3.8905 C.ar        1 O2N       0.0566
     16 C16       -22.5048   45.2976    2.3304 C.ar        1 O2N       0.0376
     17 C17       -19.3961   49.2793   -2.8911 C.ar        1 O2N      -0.0192
     18 C18       -18.5080   48.0017   -4.8458 C.ar        1 O2N      -0.0192
     19 C19       -23.3716   45.4703   -3.0557 C.ar        1 O2N       0.0220
     20 C20       -23.5878   45.6924    1.4856 C.ar        1 O2N      -0.0032
     21 C21       -22.3355   47.5811    3.1752 C.ar        1 O2N       0.1200
     22 C22       -21.9010   46.2669    3.1609 C.ar        1 O2N       0.1327
     23 C23       -19.4461   51.7630   -1.4745 C.ar        1 O2N       0.0839
     24 C24       -17.0093   48.0670   -7.2963 C.ar        1 O2N       0.0839
     25 C25       -23.5616   41.4362   -0.5669 C.2         1 O2N      -0.1125
     26 C26       -22.6291   42.2934   -0.1148 C.2         1 O2N      -0.0447
     27 C27       -21.0072   46.1348   -3.4269 C.2         1 O2N       0.2037
     28 C28       -21.9800   43.9959    2.3838 C.2         1 O2N       0.0515
     29 C29       -20.6165   47.4351    4.4758 C.3         1 O2N       0.1864
     30 C30       -19.3011   52.8747    0.5887 C.3         1 O2N       0.0579
     31 C31       -16.7715   48.1747   -9.7153 C.3         1 O2N       0.0579
     32 C32       -23.4058   45.7283   -1.5835 C.3         1 O2N       0.0086
     33 C33       -24.2930   44.7569    0.5431 C.3         1 O2N       0.0003
     34 C34       -22.3958   43.6023   -0.7279 C.3         1 O2N      -0.0011
     35 C35       -19.2784   47.9410   -3.5638 C.3         1 O2N       0.0982
     36 N36       -20.5443   47.3067   -3.8433 N.am        1 O2N      -0.2653
     37 N37       -23.6194   44.4822   -0.7785 N.4         1 O2N       0.2715
     38 O38       -22.6266   42.9982    3.0293 O.co2       1 O2N      -0.5668
     39 O39       -20.3416   45.3933   -2.7036 O.2         1 O2N      -0.3883
     40 O40       -20.7442   43.7458    1.8926 O.co2       1 O2N      -0.5668
     41 O41       -21.6523   48.3395    4.0493 O.3         1 O2N      -0.2947
     42 O42       -20.8944   46.0886    4.0533 O.3         1 O2N      -0.2890
     43 O43       -19.5002   52.9707   -0.8362 O.3         1 O2N      -0.3255
     44 O44       -16.1934   48.0457   -8.3994 O.3         1 O2N      -0.3255
     45 H1        -23.6318   44.8409   -6.8602 H           1 O2N       0.0572
     46 H2        -25.5732   44.5247   -5.4453 H           1 O2N       0.0635
     47 H3        -21.5421   45.5675   -5.9144 H           1 O2N       0.0651
     48 H4        -25.4276   44.9170   -3.0823 H           1 O2N       0.0570
     49 H5        -24.8069   47.3727    0.9331 H           1 O2N       0.0445
     50 H6        -21.4015   49.1126   -2.1669 H           1 O2N       0.0534
     51 H7        -17.4000   49.8691   -3.3490 H           1 O2N       0.0534
     52 H8        -16.7022   47.2159   -4.0584 H           1 O2N       0.0534
     53 H9        -20.0506   48.8491   -6.0625 H           1 O2N       0.0534
     54 H10       -23.7171   48.9686    2.3595 H           1 O2N       0.0514
     55 H11       -21.4379   51.2141   -1.0100 H           1 O2N       0.0526
     56 H12       -17.4676   51.9655   -2.1971 H           1 O2N       0.0526
     57 H13       -15.4406   47.2856   -6.0904 H           1 O2N       0.0526
     58 H14       -18.8159   48.8534   -8.0984 H           1 O2N       0.0526
     59 H15       -23.6680   40.5496   -0.1137 H           1 O2N       0.0292
     60 H16       -24.1639   41.6615   -1.3348 H           1 O2N       0.0292
     61 H17       -22.0520   42.0187    0.6545 H           1 O2N       0.0725
     62 H18       -20.5221   47.4714    5.5643 H           1 O2N       0.0973
     63 H19       -19.6626   47.7569    4.0485 H           1 O2N       0.0973
     64 H20       -19.3798   53.8757    1.0113 H           1 O2N       0.0575
     65 H21       -18.3099   52.4842    0.8252 H           1 O2N       0.0575
     66 H22       -20.0603   52.2462    1.0577 H           1 O2N       0.0575
     67 H23       -15.9644   48.0892  -10.4488 H           1 O2N       0.0575
     68 H24       -17.2272   49.1594   -9.8388 H           1 O2N       0.0575
     69 H25       -17.5111   47.3912   -9.9146 H           1 O2N       0.0575
     70 H26       -24.2358   46.4314   -1.4304 H           1 O2N       0.0995
     71 H27       -22.5074   46.2490   -1.2311 H           1 O2N       0.0995
     72 H28       -25.2904   45.1510    0.3208 H           1 O2N       0.0966
     73 H29       -24.4910   43.8223    1.0547 H           1 O2N       0.0966
     74 H30       -22.0412   43.3968   -1.7475 H           1 O2N       0.0998
     75 H31       -21.5804   44.1323   -0.2128 H           1 O2N       0.0998
     76 H32       -18.7261   47.3277   -2.8493 H           1 O2N       0.0837
     77 H33       -21.1497   47.8179   -4.4076 H           1 O2N       0.1893
     78 H34       -24.3176   43.9448   -1.2957 H           1 O2N       0.2082
@<TRIPOS>BOND
     1     1     2  ar
     2     3     1  ar
     3     4     2  ar
     4    15     3  ar
     5    19     4  ar
     6     5    10  ar
     7    20     5  ar
     8     6    11  ar
     9    17     6  ar
    10     7    12  ar
    11    17     7  ar
    12     8    13  ar
    13    18     8  ar
    14     9    14  ar
    15    18     9  ar
    16    10    21  ar
    17    11    23  ar
    18    12    23  ar
    19    13    24  ar
    20    14    24  ar
    21    15    19  ar
    22    27    15   1
    23    20    16  ar
    24    16    22  ar
    25    16    28   1
    26    35    17   1
    27    35    18   1
    28    19    32   1
    29    33    20   1
    30    22    21  ar
    31    21    41   1
    32    22    42   1
    33    23    43   1
    34    24    44   1
    35    26    25   2
    36    34    26   1
    37    36    27  am
    38    27    39   2
    39    28    38  ar
    40    28    40  ar
    41    29    41   1
    42    42    29   1
    43    43    30   1
    44    44    31   1
    45    32    37   1
    46    37    33   1
    47    37    34   1
    48    35    36   1
    49     1    45   1
    50     2    46   1
    51     3    47   1
    52     4    48   1
    53     5    49   1
    54     6    50   1
    55     7    51   1
    56     8    52   1
    57     9    53   1
    58    10    54   1
    59    11    55   1
    60    12    56   1
    61    13    57   1
    62    14    58   1
    63    25    59   1
    64    25    60   1
    65    26    61   1
    66    29    62   1
    67    29    63   1
    68    30    64   1
    69    30    65   1
    70    30    66   1
    71    31    67   1
    72    31    68   1
    73    31    69   1
    74    32    70   1
    75    32    71   1
    76    33    72   1
    77    33    73   1
    78    34    74   1
    79    34    75   1
    80    35    76   1
    81    36    77   1
    82    37    78   1
@<TRIPOS>SUBSTRUCTURE
     1  O2N      1

