@<TRIPOS>MOLECULE
3zso_ligand_056
    78    82
SMALL
GAST_HUCK
****
This file was generated by PARSER (from files_GN.cpp)

@<TRIPOS>ATOM
      1 C1        -20.1196   45.0357   -0.7334 C.ar        1 O2N      -0.0630
      2 C2        -19.0531   44.2711   -0.2424 C.ar        1 O2N      -0.0640
      3 C3        -19.9620   45.7668   -1.9202 C.ar        1 O2N      -0.0483
      4 C4        -17.8381   44.2252   -0.9411 C.ar        1 O2N      -0.0493
      5 C5        -12.0470   46.5217   -1.9747 C.ar        1 O2N      -0.0712
      6 C6        -19.9461   44.5857   -7.1823 C.ar        1 O2N      -0.0648
      7 C7        -21.5820   46.2857   -7.7469 C.ar        1 O2N      -0.0648
      8 C8        -17.3008   46.8754   -6.6015 C.ar        1 O2N      -0.0648
      9 C9        -18.6875   48.7100   -7.3813 C.ar        1 O2N      -0.0648
     10 C10       -10.9129   46.6829   -1.1559 C.ar        1 O2N      -0.0449
     11 C11       -20.5485   43.6981   -8.0928 C.ar        1 O2N      -0.0392
     12 C12       -22.1955   45.3974   -8.6505 C.ar        1 O2N      -0.0392
     13 C13       -16.1633   47.5052   -7.1380 C.ar        1 O2N      -0.0392
     14 C14       -17.5531   49.3384   -7.9259 C.ar        1 O2N      -0.0392
     15 C15       -18.7431   45.7386   -2.6413 C.ar        1 O2N       0.0566
     16 C16       -13.5068   46.5746   -0.0104 C.ar        1 O2N       0.0376
     17 C17       -20.4435   45.8986   -7.0029 C.ar        1 O2N      -0.0192
     18 C18       -18.5783   47.4770   -6.6869 C.ar        1 O2N      -0.0192
     19 C19       -17.6592   44.9428   -2.1518 C.ar        1 O2N       0.0220
     20 C20       -13.3526   46.4234   -1.4208 C.ar        1 O2N      -0.0032
     21 C21       -11.0870   46.7757    0.2307 C.ar        1 O2N       0.1200
     22 C22       -12.3555   46.7446    0.7904 C.ar        1 O2N       0.1327
     23 C23       -21.6719   44.1019   -8.8410 C.ar        1 O2N       0.0839
     24 C24       -16.2781   48.7572   -7.7719 C.ar        1 O2N       0.0839
     25 C25       -11.7613   43.3921   -2.5303 C.2         1 O2N      -0.1125
     26 C26       -12.8707   43.6861   -1.8471 C.2         1 O2N      -0.0447
     27 C27       -18.6974   46.4589   -3.8251 C.2         1 O2N       0.2037
     28 C28       -14.7535   46.5506    0.6345 C.2         1 O2N       0.0515
     29 C29       -10.8926   47.0566    2.3624 C.3         1 O2N       0.1864
     30 C30       -21.9269   43.4056  -11.0718 C.3         1 O2N       0.0579
     31 C31       -14.7323   50.5123   -7.5414 C.3         1 O2N       0.0579
     32 C32       -16.4182   44.6369   -2.9280 C.3         1 O2N       0.0086
     33 C33       -14.5061   46.1255   -2.3256 C.3         1 O2N       0.0003
     34 C34       -14.2092   43.6031   -2.4055 C.3         1 O2N      -0.0011
     35 C35       -19.7841   46.8518   -6.0489 C.3         1 O2N       0.0982
     36 N36       -19.5892   46.1999   -4.7796 N.am        1 O2N      -0.2653
     37 N37       -15.1329   44.7685   -2.1403 N.4         1 O2N       0.2715
     38 O38       -15.2234   47.7111    1.1473 O.co2       1 O2N      -0.5668
     39 O39       -17.8580   47.3436   -3.9359 O.2         1 O2N      -0.3883
     40 O40       -15.0563   45.4309    1.3227 O.co2       1 O2N      -0.5668
     41 O41       -10.1218   46.8639    1.1604 O.3         1 O2N      -0.2947
     42 O42       -12.3023   46.8573    2.1339 O.3         1 O2N      -0.2890
     43 O43       -22.2769   43.2138   -9.6893 O.3         1 O2N      -0.3255
     44 O44       -15.1570   49.3506   -8.2786 O.3         1 O2N      -0.3255
     45 H1        -21.0078   45.0607   -0.2304 H           1 O2N       0.0572
     46 H2        -19.1735   43.7233    0.6146 H           1 O2N       0.0635
     47 H3        -20.7578   46.3191   -2.2562 H           1 O2N       0.0651
     48 H4        -17.1003   43.6084   -0.5840 H           1 O2N       0.0570
     49 H5        -11.9013   46.4187   -2.9820 H           1 O2N       0.0445
     50 H6        -19.1366   44.2583   -6.6496 H           1 O2N       0.0534
     51 H7        -21.9757   47.2249   -7.6440 H           1 O2N       0.0534
     52 H8        -17.1832   45.9759   -6.1282 H           1 O2N       0.0534
     53 H9        -19.5971   49.1624   -7.4972 H           1 O2N       0.0534
     54 H10        -9.9761   46.7030   -1.5625 H           1 O2N       0.0514
     55 H11       -20.1718   42.7537   -8.2084 H           1 O2N       0.0526
     56 H12       -23.0244   45.6933   -9.1713 H           1 O2N       0.0526
     57 H13       -15.2470   47.0559   -7.0566 H           1 O2N       0.0526
     58 H14       -17.6502   50.2249   -8.4249 H           1 O2N       0.0526
     59 H15       -10.8735   43.4310   -2.0932 H           1 O2N       0.0292
     60 H16       -11.8024   43.1156   -3.4861 H           1 O2N       0.0292
     61 H17       -12.7821   43.9067   -0.8783 H           1 O2N       0.0725
     62 H18       -10.7305   48.0750    2.7281 H           1 O2N       0.0973
     63 H19       -10.5497   46.3577    3.1292 H           1 O2N       0.0973
     64 H20       -22.3794   42.6019  -11.6531 H           1 O2N       0.0575
     65 H21       -20.8451   43.3655  -11.2227 H           1 O2N       0.0575
     66 H22       -22.3153   44.3563  -11.4468 H           1 O2N       0.0575
     67 H23       -13.7960   50.8685   -7.9748 H           1 O2N       0.0575
     68 H24       -14.5504   50.2663   -6.4911 H           1 O2N       0.0575
     69 H25       -15.4687   51.3169   -7.6081 H           1 O2N       0.0575
     70 H26       -16.3578   45.2296   -3.8450 H           1 O2N       0.0995
     71 H27       -16.5617   43.6072   -3.2721 H           1 O2N       0.0995
     72 H28       -14.2092   46.2223   -3.3769 H           1 O2N       0.0966
     73 H29       -15.2557   46.9035   -2.1512 H           1 O2N       0.0966
     74 H30       -14.6413   42.7106   -1.9473 H           1 O2N       0.0998
     75 H31       -14.1690   43.4213   -3.4849 H           1 O2N       0.0998
     76 H32       -20.4960   47.6535   -5.8208 H           1 O2N       0.0837
     77 H33       -20.2193   45.4903   -4.5772 H           1 O2N       0.1893
     78 H34       -15.3847   44.7001   -1.1539 H           1 O2N       0.2082
@<TRIPOS>BOND
     1     1     2  ar
     2     3     1  ar
     3     4     2  ar
     4    15     3  ar
     5    19     4  ar
     6     5    10  ar
     7    20     5  ar
     8     6    11  ar
     9    17     6  ar
    10     7    12  ar
    11    17     7  ar
    12     8    13  ar
    13    18     8  ar
    14     9    14  ar
    15    18     9  ar
    16    10    21  ar
    17    11    23  ar
    18    12    23  ar
    19    13    24  ar
    20    14    24  ar
    21    15    19  ar
    22    27    15   1
    23    20    16  ar
    24    16    22  ar
    25    16    28   1
    26    35    17   1
    27    35    18   1
    28    19    32   1
    29    33    20   1
    30    22    21  ar
    31    21    41   1
    32    22    42   1
    33    23    43   1
    34    24    44   1
    35    26    25   2
    36    34    26   1
    37    36    27  am
    38    27    39   2
    39    28    38  ar
    40    28    40  ar
    41    29    41   1
    42    42    29   1
    43    43    30   1
    44    44    31   1
    45    32    37   1
    46    37    33   1
    47    37    34   1
    48    35    36   1
    49     1    45   1
    50     2    46   1
    51     3    47   1
    52     4    48   1
    53     5    49   1
    54     6    50   1
    55     7    51   1
    56     8    52   1
    57     9    53   1
    58    10    54   1
    59    11    55   1
    60    12    56   1
    61    13    57   1
    62    14    58   1
    63    25    59   1
    64    25    60   1
    65    26    61   1
    66    29    62   1
    67    29    63   1
    68    30    64   1
    69    30    65   1
    70    30    66   1
    71    31    67   1
    72    31    68   1
    73    31    69   1
    74    32    70   1
    75    32    71   1
    76    33    72   1
    77    33    73   1
    78    34    74   1
    79    34    75   1
    80    35    76   1
    81    36    77   1
    82    37    78   1
@<TRIPOS>SUBSTRUCTURE
     1  O2N      1

