@<TRIPOS>MOLECULE
3zso_ligand_034
    78    82
SMALL
GAST_HUCK
****
This file was generated by PARSER (from files_GN.cpp)

@<TRIPOS>ATOM
      1 C1        -12.2310   43.7406   -0.8661 C.ar        1 O2N      -0.0630
      2 C2        -12.9566   43.1959   -1.9326 C.ar        1 O2N      -0.0640
      3 C3        -12.6816   44.9167   -0.2467 C.ar        1 O2N      -0.0483
      4 C4        -14.1377   43.8191   -2.3643 C.ar        1 O2N      -0.0493
      5 C5        -17.8479   48.6761   -3.4500 C.ar        1 O2N      -0.0712
      6 C6        -15.1329   50.0609   -1.2035 C.ar        1 O2N      -0.0648
      7 C7        -13.5203   51.4877   -0.0889 C.ar        1 O2N      -0.0648
      8 C8        -12.6046   49.3550    2.8797 C.ar        1 O2N      -0.0648
      9 C9        -11.2581   49.0486    0.8785 C.ar        1 O2N      -0.0648
     10 C10       -18.6410   49.7093   -2.9151 C.ar        1 O2N      -0.0449
     11 C11       -15.5366   51.1433   -2.0032 C.ar        1 O2N      -0.0392
     12 C12       -13.9149   52.5685   -0.8933 C.ar        1 O2N      -0.0392
     13 C13       -11.4331   49.4767    3.6484 C.ar        1 O2N      -0.0392
     14 C14       -10.0867   49.1729    1.6473 C.ar        1 O2N      -0.0392
     15 C15       -13.8729   45.5622   -0.6716 C.ar        1 O2N       0.0566
     16 C16       -19.4271   46.9980   -2.6138 C.ar        1 O2N       0.0376
     17 C17       -14.1107   50.2053   -0.2311 C.ar        1 O2N      -0.0192
     18 C18       -12.5430   49.1374    1.4803 C.ar        1 O2N      -0.0192
     19 C19       -14.6221   45.0114   -1.7600 C.ar        1 O2N       0.0220
     20 C20       -18.2352   47.3103   -3.3328 C.ar        1 O2N      -0.0032
     21 C21       -19.8191   49.3761   -2.2362 C.ar        1 O2N       0.1200
     22 C22       -20.1974   48.0516   -2.0749 C.ar        1 O2N       0.1327
     23 C23       -14.9218   52.4010   -1.8631 C.ar        1 O2N       0.0839
     24 C24       -10.1688   49.3717    3.0384 C.ar        1 O2N       0.0839
     25 C25       -15.4359   46.8907   -6.5914 C.2         1 O2N      -0.1125
     26 C26       -15.3825   45.6396   -6.1017 C.2         1 O2N      -0.0447
     27 C27       -14.2710   46.6623    0.0691 C.2         1 O2N       0.2037
     28 C28       -19.8819   45.6846   -2.4648 C.2         1 O2N       0.0515
     29 C29       -21.5461   49.3249   -0.9505 C.3         1 O2N       0.1864
     30 C30       -14.9636   53.3716   -3.9962 C.3         1 O2N       0.0579
     31 C31        -8.4668   48.3142    4.2664 C.3         1 O2N       0.0579
     32 C32       -15.9291   45.5650   -2.2716 C.3         1 O2N       0.0086
     33 C33       -17.4417   46.3080   -4.1133 C.3         1 O2N       0.0003
     34 C34       -15.2119   45.3270   -4.6894 C.3         1 O2N      -0.0011
     35 C35       -13.7873   49.0317    0.6524 C.3         1 O2N       0.0982
     36 N36       -13.6724   47.8317   -0.1354 N.am        1 O2N      -0.2653
     37 N37       -16.0083   46.1168   -3.6811 N.4         1 O2N       0.2715
     38 O38       -21.0475   45.2940   -3.0382 O.co2       1 O2N      -0.5668
     39 O39       -14.9840   46.4638    1.0489 O.2         1 O2N      -0.3883
     40 O40       -19.3686   44.9109   -1.4720 O.co2       1 O2N      -0.5668
     41 O41       -20.6972   50.2290   -1.6808 O.3         1 O2N      -0.2947
     42 O42       -21.3610   47.9679   -1.4002 O.3         1 O2N      -0.2890
     43 O43       -15.3380   53.4656   -2.6099 O.3         1 O2N      -0.3255
     44 O44        -9.0270   49.5418    3.7711 O.3         1 O2N      -0.3255
     45 H1        -11.3774   43.2834   -0.5382 H           1 O2N       0.0572
     46 H2        -12.6273   42.3410   -2.3926 H           1 O2N       0.0635
     47 H3        -12.1354   45.2862    0.5404 H           1 O2N       0.0651
     48 H4        -14.6359   43.4031   -3.1564 H           1 O2N       0.0570
     49 H5        -17.0051   48.9276   -3.9749 H           1 O2N       0.0445
     50 H6        -15.6000   49.1594   -1.3355 H           1 O2N       0.0534
     51 H7        -12.8091   51.6638    0.6243 H           1 O2N       0.0534
     52 H8        -13.5069   49.4401    3.3501 H           1 O2N       0.0534
     53 H9        -11.1727   48.9124   -0.1287 H           1 O2N       0.0534
     54 H10       -18.3808   50.6841   -3.0434 H           1 O2N       0.0514
     55 H11       -16.2785   51.0161   -2.6947 H           1 O2N       0.0526
     56 H12       -13.4783   53.4860   -0.7684 H           1 O2N       0.0526
     57 H13       -11.5006   49.6479    4.6567 H           1 O2N       0.0526
     58 H14        -9.1718   49.1254    1.1890 H           1 O2N       0.0526
     59 H15       -15.5497   47.0297   -7.5724 H           1 O2N       0.0292
     60 H16       -15.3824   47.6891   -5.9897 H           1 O2N       0.0292
     61 H17       -15.4433   44.8893   -6.7437 H           1 O2N       0.0725
     62 H18       -22.5895   49.6165   -1.0777 H           1 O2N       0.0973
     63 H19       -21.2990   49.3864    0.1143 H           1 O2N       0.0973
     64 H20       -15.3230   54.2612   -4.5046 H           1 O2N       0.0575
     65 H21       -15.4199   52.4997   -4.4746 H           1 O2N       0.0575
     66 H22       -13.8766   53.3210   -4.1144 H           1 O2N       0.0575
     67 H23        -7.5661   48.5604    4.8297 H           1 O2N       0.0575
     68 H24        -8.1876   47.6438    3.4497 H           1 O2N       0.0575
     69 H25        -9.1603   47.8017    4.9392 H           1 O2N       0.0575
     70 H26       -16.2579   46.3682   -1.6089 H           1 O2N       0.0995
     71 H27       -16.6689   44.7602   -2.1474 H           1 O2N       0.0995
     72 H28       -17.4961   46.6687   -5.1396 H           1 O2N       0.0966
     73 H29       -17.9360   45.3295   -4.1413 H           1 O2N       0.0966
     74 H30       -14.1525   45.4933   -4.5009 H           1 O2N       0.0998
     75 H31       -15.4204   44.2585   -4.5311 H           1 O2N       0.0998
     76 H32       -14.6471   48.9460    1.3269 H           1 O2N       0.0837
     77 H33       -13.0589   47.8730   -0.8973 H           1 O2N       0.1893
     78 H34       -15.5676   47.0414   -3.6543 H           1 O2N       0.2082
@<TRIPOS>BOND
     1     1     2  ar
     2     3     1  ar
     3     4     2  ar
     4    15     3  ar
     5    19     4  ar
     6     5    10  ar
     7    20     5  ar
     8     6    11  ar
     9    17     6  ar
    10     7    12  ar
    11    17     7  ar
    12     8    13  ar
    13    18     8  ar
    14     9    14  ar
    15    18     9  ar
    16    10    21  ar
    17    11    23  ar
    18    12    23  ar
    19    13    24  ar
    20    14    24  ar
    21    15    19  ar
    22    27    15   1
    23    20    16  ar
    24    16    22  ar
    25    16    28   1
    26    35    17   1
    27    35    18   1
    28    19    32   1
    29    33    20   1
    30    22    21  ar
    31    21    41   1
    32    22    42   1
    33    23    43   1
    34    24    44   1
    35    26    25   2
    36    34    26   1
    37    36    27  am
    38    27    39   2
    39    28    38  ar
    40    28    40  ar
    41    29    41   1
    42    42    29   1
    43    43    30   1
    44    44    31   1
    45    32    37   1
    46    37    33   1
    47    37    34   1
    48    35    36   1
    49     1    45   1
    50     2    46   1
    51     3    47   1
    52     4    48   1
    53     5    49   1
    54     6    50   1
    55     7    51   1
    56     8    52   1
    57     9    53   1
    58    10    54   1
    59    11    55   1
    60    12    56   1
    61    13    57   1
    62    14    58   1
    63    25    59   1
    64    25    60   1
    65    26    61   1
    66    29    62   1
    67    29    63   1
    68    30    64   1
    69    30    65   1
    70    30    66   1
    71    31    67   1
    72    31    68   1
    73    31    69   1
    74    32    70   1
    75    32    71   1
    76    33    72   1
    77    33    73   1
    78    34    74   1
    79    34    75   1
    80    35    76   1
    81    36    77   1
    82    37    78   1
@<TRIPOS>SUBSTRUCTURE
     1  O2N      1

