@<TRIPOS>MOLECULE
3zso_ligand_053
    78    82
SMALL
GAST_HUCK
****
This file was generated by PARSER (from files_GN.cpp)

@<TRIPOS>ATOM
      1 C1        -17.8904   44.3226   -5.8995 C.ar        1 O2N      -0.0630
      2 C2        -17.0603   43.3658   -5.3120 C.ar        1 O2N      -0.0640
      3 C3        -17.4861   45.6635   -5.9441 C.ar        1 O2N      -0.0483
      4 C4        -15.8390   43.7615   -4.7470 C.ar        1 O2N      -0.0493
      5 C5        -11.7875   48.2702   -1.4984 C.ar        1 O2N      -0.0712
      6 C6        -17.4486   50.1628   -5.7744 C.ar        1 O2N      -0.0648
      7 C7        -15.3121   51.3107   -5.7695 C.ar        1 O2N      -0.0648
      8 C8        -15.8986   50.8379   -9.2498 C.ar        1 O2N      -0.0648
      9 C9        -16.7626   48.5918   -9.4789 C.ar        1 O2N      -0.0648
     10 C10       -11.4920   49.3501   -0.6492 C.ar        1 O2N      -0.0449
     11 C11       -17.9275   51.0567   -4.7952 C.ar        1 O2N      -0.0392
     12 C12       -15.7953   52.2102   -4.7982 C.ar        1 O2N      -0.0392
     13 C13       -16.3350   51.1367  -10.5549 C.ar        1 O2N      -0.0392
     14 C14       -17.1675   48.8768  -10.7940 C.ar        1 O2N      -0.0392
     15 C15       -16.2346   46.0894   -5.4204 C.ar        1 O2N       0.0566
     16 C16       -12.9092   47.0770    0.3261 C.ar        1 O2N       0.0376
     17 C17       -16.1294   50.2720   -6.2689 C.ar        1 O2N      -0.0192
     18 C18       -16.1188   49.5641   -8.6636 C.ar        1 O2N      -0.0192
     19 C19       -15.4118   45.1123   -4.7654 C.ar        1 O2N       0.0220
     20 C20       -12.5175   47.1307   -1.0552 C.ar        1 O2N      -0.0032
     21 C21       -11.9473   49.3030    0.6710 C.ar        1 O2N       0.1200
     22 C22       -12.6391   48.2019    1.1455 C.ar        1 O2N       0.1327
     23 C23       -17.1094   52.0891   -4.2891 C.ar        1 O2N       0.0839
     24 C24       -16.9761   50.1610  -11.3414 C.ar        1 O2N       0.0839
     25 C25       -17.2716   46.1747   -2.5814 C.2         1 O2N      -0.1125
     26 C26       -16.5368   45.1483   -2.1282 C.2         1 O2N      -0.0447
     27 C27       -15.8918   47.4351   -5.5913 C.2         1 O2N       0.2037
     28 C28       -13.5289   45.9637    0.9454 C.2         1 O2N       0.0515
     29 C29       -12.5565   49.7338    2.6858 C.3         1 O2N       0.1864
     30 C30       -17.1073   52.9936   -2.0074 C.3         1 O2N       0.0579
     31 C31       -18.5446   49.9722  -13.1399 C.3         1 O2N       0.0579
     32 C32       -14.1245   45.4097   -4.0580 C.3         1 O2N       0.0086
     33 C33       -12.7771   46.0543   -2.0756 C.3         1 O2N       0.0003
     34 C34       -15.1421   45.2621   -1.7326 C.3         1 O2N      -0.0011
     35 C35       -15.5940   49.2906   -7.2723 C.3         1 O2N       0.0982
     36 N36       -15.8261   47.9409   -6.8202 N.am        1 O2N      -0.2653
     37 N37       -14.1805   45.9712   -2.6547 N.4         1 O2N       0.2715
     38 O38       -13.2004   44.6961    0.6237 O.co2       1 O2N      -0.5668
     39 O39       -15.7433   48.1694   -4.6220 O.2         1 O2N      -0.3883
     40 O40       -14.4187   46.1135    1.9529 O.co2       1 O2N      -0.5668
     41 O41       -11.7476   50.2400    1.6126 O.3         1 O2N      -0.2947
     42 O42       -12.9236   48.3622    2.4553 O.3         1 O2N      -0.2890
     43 O43       -17.6836   52.8867   -3.3187 O.3         1 O2N      -0.3255
     44 O44       -17.3005   50.4898  -12.6352 O.3         1 O2N      -0.3255
     45 H1        -18.7860   44.0504   -6.3079 H           1 O2N       0.0572
     46 H2        -17.3510   42.3857   -5.2742 H           1 O2N       0.0635
     47 H3        -18.1401   46.3306   -6.3648 H           1 O2N       0.0651
     48 H4        -15.2765   43.0459   -4.2842 H           1 O2N       0.0570
     49 H5        -11.4372   48.3255   -2.4553 H           1 O2N       0.0445
     50 H6        -18.0674   49.4250   -6.1153 H           1 O2N       0.0534
     51 H7        -14.3563   51.4328   -6.1107 H           1 O2N       0.0534
     52 H8        -15.4002   51.5630   -8.7287 H           1 O2N       0.0534
     53 H9        -16.9201   47.6399   -9.1540 H           1 O2N       0.0534
     54 H10       -10.9515   50.1519   -0.9853 H           1 O2N       0.0514
     55 H11       -18.8829   50.9460   -4.4466 H           1 O2N       0.0526
     56 H12       -15.1708   52.9460   -4.4659 H           1 O2N       0.0526
     57 H13       -16.1640   52.0664  -10.9423 H           1 O2N       0.0526
     58 H14       -17.5935   48.1350  -11.3538 H           1 O2N       0.0526
     59 H15       -18.2341   46.0482   -2.7932 H           1 O2N       0.0292
     60 H16       -16.8738   47.0757   -2.6865 H           1 O2N       0.0292
     61 H17       -16.9733   44.2594   -2.0560 H           1 O2N       0.0725
     62 H18       -13.4642   50.3405    2.7669 H           1 O2N       0.0973
     63 H19       -12.0044   49.8138    3.6247 H           1 O2N       0.0973
     64 H20       -17.7421   53.6431   -1.4012 H           1 O2N       0.0575
     65 H21       -16.1128   53.4394   -2.0606 H           1 O2N       0.0575
     66 H22       -17.0526   52.0169   -1.5226 H           1 O2N       0.0575
     67 H23       -18.7594   50.4636  -14.0889 H           1 O2N       0.0575
     68 H24       -19.3729   50.1648  -12.4526 H           1 O2N       0.0575
     69 H25       -18.4680   48.8997  -13.3302 H           1 O2N       0.0575
     70 H26       -13.5791   46.1139   -4.6866 H           1 O2N       0.0995
     71 H27       -13.4998   44.5053   -4.0420 H           1 O2N       0.0995
     72 H28       -12.4808   45.0842   -1.6853 H           1 O2N       0.0966
     73 H29       -12.0637   46.2146   -2.8909 H           1 O2N       0.0966
     74 H30       -14.7571   44.2567   -1.5219 H           1 O2N       0.0998
     75 H31       -15.1846   45.8053   -0.7922 H           1 O2N       0.0998
     76 H32       -14.5077   49.3934   -7.3453 H           1 O2N       0.0837
     77 H33       -15.9714   47.2866   -7.5153 H           1 O2N       0.1893
     78 H34       -14.5153   46.9311   -2.7420 H           1 O2N       0.2082
@<TRIPOS>BOND
     1     1     2  ar
     2     3     1  ar
     3     4     2  ar
     4    15     3  ar
     5    19     4  ar
     6     5    10  ar
     7    20     5  ar
     8     6    11  ar
     9    17     6  ar
    10     7    12  ar
    11    17     7  ar
    12     8    13  ar
    13    18     8  ar
    14     9    14  ar
    15    18     9  ar
    16    10    21  ar
    17    11    23  ar
    18    12    23  ar
    19    13    24  ar
    20    14    24  ar
    21    15    19  ar
    22    27    15   1
    23    20    16  ar
    24    16    22  ar
    25    16    28   1
    26    35    17   1
    27    35    18   1
    28    19    32   1
    29    33    20   1
    30    22    21  ar
    31    21    41   1
    32    22    42   1
    33    23    43   1
    34    24    44   1
    35    26    25   2
    36    34    26   1
    37    36    27  am
    38    27    39   2
    39    28    38  ar
    40    28    40  ar
    41    29    41   1
    42    42    29   1
    43    43    30   1
    44    44    31   1
    45    32    37   1
    46    37    33   1
    47    37    34   1
    48    35    36   1
    49     1    45   1
    50     2    46   1
    51     3    47   1
    52     4    48   1
    53     5    49   1
    54     6    50   1
    55     7    51   1
    56     8    52   1
    57     9    53   1
    58    10    54   1
    59    11    55   1
    60    12    56   1
    61    13    57   1
    62    14    58   1
    63    25    59   1
    64    25    60   1
    65    26    61   1
    66    29    62   1
    67    29    63   1
    68    30    64   1
    69    30    65   1
    70    30    66   1
    71    31    67   1
    72    31    68   1
    73    31    69   1
    74    32    70   1
    75    32    71   1
    76    33    72   1
    77    33    73   1
    78    34    74   1
    79    34    75   1
    80    35    76   1
    81    36    77   1
    82    37    78   1
@<TRIPOS>SUBSTRUCTURE
     1  O2N      1

