@<TRIPOS>MOLECULE
3zso_ligand_040
    78    82
SMALL
GAST_HUCK
****
This file was generated by PARSER (from files_GN.cpp)

@<TRIPOS>ATOM
      1 C1        -16.1675   47.4478   -7.2091 C.ar        1 O2N      -0.0630
      2 C2        -15.7513   46.2781   -6.5623 C.ar        1 O2N      -0.0640
      3 C3        -16.6971   48.5040   -6.4598 C.ar        1 O2N      -0.0483
      4 C4        -15.8860   46.1579   -5.1734 C.ar        1 O2N      -0.0493
      5 C5        -13.3206   44.8810   -3.1234 C.ar        1 O2N      -0.0712
      6 C6        -19.6826   52.0900   -4.9152 C.ar        1 O2N      -0.0648
      7 C7        -21.4599   50.8184   -3.8573 C.ar        1 O2N      -0.0648
      8 C8        -18.7248   52.8129   -1.8294 C.ar        1 O2N      -0.0648
      9 C9        -16.9942   51.1272   -1.6394 C.ar        1 O2N      -0.0648
     10 C10       -12.0315   45.4336   -3.2142 C.ar        1 O2N      -0.0449
     11 C11       -20.6161   52.6615   -5.7984 C.ar        1 O2N      -0.0392
     12 C12       -22.3965   51.3936   -4.7345 C.ar        1 O2N      -0.0392
     13 C13       -17.9549   53.6941   -1.0529 C.ar        1 O2N      -0.0392
     14 C14       -16.2205   52.0068   -0.8606 C.ar        1 O2N      -0.0392
     15 C15       -16.8322   48.4093   -5.0503 C.ar        1 O2N       0.0566
     16 C16       -13.7413   46.0928   -1.0296 C.ar        1 O2N       0.0376
     17 C17       -20.0856   51.1568   -3.9257 C.ar        1 O2N      -0.0192
     18 C18       -18.2489   51.5211   -2.1749 C.ar        1 O2N      -0.0192
     19 C19       -16.4473   47.1936   -4.3907 C.ar        1 O2N       0.0220
     20 C20       -14.2044   45.2129   -2.0597 C.ar        1 O2N      -0.0032
     21 C21       -11.6169   46.3333   -2.2239 C.ar        1 O2N       0.1200
     22 C22       -12.4455   46.6514   -1.1554 C.ar        1 O2N       0.1327
     23 C23       -21.9814   52.3301   -5.7002 C.ar        1 O2N       0.0839
     24 C24       -16.6859   53.3051   -0.5847 C.ar        1 O2N       0.0839
     25 C25       -20.0048   46.1073   -3.7126 C.2         1 O2N      -0.1125
     26 C26       -19.1581   46.0108   -2.6716 C.2         1 O2N      -0.0447
     27 C27       -17.3056   49.5471   -4.3973 C.2         1 O2N       0.2037
     28 C28       -14.5158   46.4578    0.0915 C.2         1 O2N       0.0515
     29 C29       -10.6776   47.8987   -1.0929 C.3         1 O2N       0.1864
     30 C30       -23.3920   54.1515   -6.1638 C.3         1 O2N       0.0579
     31 C31       -14.9031   54.8270   -0.5456 C.3         1 O2N       0.0579
     32 C32       -16.4226   47.0425   -2.8980 C.3         1 O2N       0.0086
     33 C33       -15.6112   44.6967   -2.1215 C.3         1 O2N       0.0003
     34 C34       -18.0213   45.1003   -2.6280 C.3         1 O2N      -0.0011
     35 C35       -19.0951   50.5575   -2.9675 C.3         1 O2N       0.0982
     36 N36       -18.4058   49.4960   -3.6550 N.am        1 O2N      -0.2653
     37 N37       -16.7134   45.7255   -2.2253 N.4         1 O2N       0.2715
     38 O38       -14.7493   47.7560    0.3934 O.co2       1 O2N      -0.5668
     39 O39       -16.7046   50.6011   -4.5665 O.2         1 O2N      -0.3883
     40 O40       -14.8474   45.5477    1.0346 O.co2       1 O2N      -0.5668
     41 O41       -10.4312   46.9619   -2.1563 O.3         1 O2N      -0.2947
     42 O42       -11.8206   47.5050   -0.3138 O.3         1 O2N      -0.2890
     43 O43       -22.8933   52.8646   -6.5717 O.3         1 O2N      -0.3255
     44 O44       -15.9439   54.1591    0.1895 O.3         1 O2N      -0.3255
     45 H1        -16.0740   47.5299   -8.2261 H           1 O2N       0.0572
     46 H2        -15.3398   45.5118   -7.0936 H           1 O2N       0.0635
     47 H3        -16.9793   49.3525   -6.9618 H           1 O2N       0.0651
     48 H4        -15.5569   45.2961   -4.7359 H           1 O2N       0.0570
     49 H5        -13.6160   44.2490   -3.8710 H           1 O2N       0.0445
     50 H6        -18.7089   52.3806   -4.9877 H           1 O2N       0.0534
     51 H7        -21.7939   50.1442   -3.1644 H           1 O2N       0.0534
     52 H8        -19.6477   53.1321   -2.1290 H           1 O2N       0.0534
     53 H9        -16.6327   50.1900   -1.8142 H           1 O2N       0.0534
     54 H10       -11.4097   45.1990   -3.9921 H           1 O2N       0.0514
     55 H11       -20.3022   53.3299   -6.5065 H           1 O2N       0.0526
     56 H12       -23.3836   51.1335   -4.6682 H           1 O2N       0.0526
     57 H13       -18.3170   54.6223   -0.8207 H           1 O2N       0.0526
     58 H14       -15.3167   51.6949   -0.4926 H           1 O2N       0.0526
     59 H15       -20.7461   46.7692   -3.6974 H           1 O2N       0.0292
     60 H16       -19.8928   45.5381   -4.5182 H           1 O2N       0.0292
     61 H17       -19.3210   46.6005   -1.8866 H           1 O2N       0.0725
     62 H18       -10.8589   48.8915   -1.5198 H           1 O2N       0.0973
     63 H19        -9.7969   47.9559   -0.4495 H           1 O2N       0.0973
     64 H20       -24.1318   54.4763   -6.8972 H           1 O2N       0.0575
     65 H21       -22.5909   54.8967   -6.1357 H           1 O2N       0.0575
     66 H22       -23.8797   54.1016   -5.1857 H           1 O2N       0.0575
     67 H23       -14.3813   55.4970    0.1378 H           1 O2N       0.0575
     68 H24       -15.3094   55.4264   -1.3660 H           1 O2N       0.0575
     69 H25       -14.1766   54.1096   -0.9418 H           1 O2N       0.0575
     70 H26       -17.1411   47.7204   -2.4450 H           1 O2N       0.0995
     71 H27       -15.4588   47.4240   -2.5684 H           1 O2N       0.0995
     72 H28       -15.7788   44.1190   -1.2094 H           1 O2N       0.0966
     73 H29       -15.7092   43.9680   -2.9321 H           1 O2N       0.0966
     74 H30       -17.9001   44.5836   -3.5878 H           1 O2N       0.0998
     75 H31       -18.2876   44.3382   -1.8864 H           1 O2N       0.0998
     76 H32       -19.6535   50.0288   -2.1911 H           1 O2N       0.0837
     77 H33       -18.8178   48.6204   -3.5798 H           1 O2N       0.1893
     78 H34       -16.8665   45.9887   -1.2528 H           1 O2N       0.2082
@<TRIPOS>BOND
     1     1     2  ar
     2     3     1  ar
     3     4     2  ar
     4    15     3  ar
     5    19     4  ar
     6     5    10  ar
     7    20     5  ar
     8     6    11  ar
     9    17     6  ar
    10     7    12  ar
    11    17     7  ar
    12     8    13  ar
    13    18     8  ar
    14     9    14  ar
    15    18     9  ar
    16    10    21  ar
    17    11    23  ar
    18    12    23  ar
    19    13    24  ar
    20    14    24  ar
    21    15    19  ar
    22    27    15   1
    23    20    16  ar
    24    16    22  ar
    25    16    28   1
    26    35    17   1
    27    35    18   1
    28    19    32   1
    29    33    20   1
    30    22    21  ar
    31    21    41   1
    32    22    42   1
    33    23    43   1
    34    24    44   1
    35    26    25   2
    36    34    26   1
    37    36    27  am
    38    27    39   2
    39    28    38  ar
    40    28    40  ar
    41    29    41   1
    42    42    29   1
    43    43    30   1
    44    44    31   1
    45    32    37   1
    46    37    33   1
    47    37    34   1
    48    35    36   1
    49     1    45   1
    50     2    46   1
    51     3    47   1
    52     4    48   1
    53     5    49   1
    54     6    50   1
    55     7    51   1
    56     8    52   1
    57     9    53   1
    58    10    54   1
    59    11    55   1
    60    12    56   1
    61    13    57   1
    62    14    58   1
    63    25    59   1
    64    25    60   1
    65    26    61   1
    66    29    62   1
    67    29    63   1
    68    30    64   1
    69    30    65   1
    70    30    66   1
    71    31    67   1
    72    31    68   1
    73    31    69   1
    74    32    70   1
    75    32    71   1
    76    33    72   1
    77    33    73   1
    78    34    74   1
    79    34    75   1
    80    35    76   1
    81    36    77   1
    82    37    78   1
@<TRIPOS>SUBSTRUCTURE
     1  O2N      1

