@<TRIPOS>MOLECULE
3zso_ligand_070
    78    82
SMALL
GAST_HUCK
****
This file was generated by PARSER (from files_GN.cpp)

@<TRIPOS>ATOM
      1 C1        -15.3930   48.7477   -6.6283 C.ar        1 O2N      -0.0630
      2 C2        -15.7620   47.4077   -6.8050 C.ar        1 O2N      -0.0640
      3 C3        -15.8421   49.4544   -5.5033 C.ar        1 O2N      -0.0483
      4 C4        -16.5214   46.7573   -5.8163 C.ar        1 O2N      -0.0493
      5 C5        -13.5255   45.8390   -2.9325 C.ar        1 O2N      -0.0712
      6 C6        -16.2926   52.9834   -3.1817 C.ar        1 O2N      -0.0648
      7 C7        -18.3183   52.8694   -1.8394 C.ar        1 O2N      -0.0648
      8 C8        -14.4266   50.2987   -0.3793 C.ar        1 O2N      -0.0648
      9 C9        -15.2848   52.5089    0.1207 C.ar        1 O2N      -0.0648
     10 C10       -12.1920   45.3892   -2.8861 C.ar        1 O2N      -0.0449
     11 C11       -16.7460   54.1817   -3.7654 C.ar        1 O2N      -0.0392
     12 C12       -18.7602   54.0799   -2.4049 C.ar        1 O2N      -0.0392
     13 C13       -13.3737   50.4996    0.5290 C.ar        1 O2N      -0.0392
     14 C14       -14.2302   52.7167    1.0300 C.ar        1 O2N      -0.0392
     15 C15       -16.6513   48.8244   -4.5198 C.ar        1 O2N       0.0566
     16 C16       -13.6246   45.9126   -0.4827 C.ar        1 O2N       0.0376
     17 C17       -17.0707   52.3107   -2.2087 C.ar        1 O2N      -0.0192
     18 C18       -15.3930   51.3097   -0.6301 C.ar        1 O2N      -0.0192
     19 C19       -16.9384   47.4283   -4.6412 C.ar        1 O2N       0.0220
     20 C20       -14.2670   46.0810   -1.7472 C.ar        1 O2N      -0.0032
     21 C21       -11.6097   45.1593   -1.6350 C.ar        1 O2N       0.1200
     22 C22       -12.2990   45.4193   -0.4603 C.ar        1 O2N       0.1327
     23 C23       -17.9674   54.7506   -3.3561 C.ar        1 O2N       0.0839
     24 C24       -13.2738   51.7084    1.2455 C.ar        1 O2N       0.0839
     25 C25       -16.2436   42.8392   -1.7544 C.2         1 O2N      -0.1125
     26 C26       -15.5707   43.4821   -2.7255 C.2         1 O2N      -0.0447
     27 C27       -17.1201   49.6117   -3.4816 C.2         1 O2N       0.2037
     28 C28       -14.2222   46.2520    0.7457 C.2         1 O2N       0.0515
     29 C29       -10.2733   44.8096    0.0148 C.3         1 O2N       0.1864
     30 C30       -17.7589   57.0905   -3.3675 C.3         1 O2N       0.0579
     31 C31       -12.5424   51.5215    3.4622 C.3         1 O2N       0.0579
     32 C32       -17.5838   46.6131   -3.5544 C.3         1 O2N       0.0086
     33 C33       -15.6804   46.5431   -1.9132 C.3         1 O2N       0.0003
     34 C34       -16.1381   44.5587   -3.5152 C.3         1 O2N      -0.0011
     35 C35       -16.5586   51.0642   -1.5515 C.3         1 O2N       0.0982
     36 N36       -16.2736   50.1078   -2.5895 N.am        1 O2N      -0.2653
     37 N37       -16.6599   45.7341   -2.7380 N.4         1 O2N       0.2715
     38 O38       -14.7625   45.2861    1.5182 O.co2       1 O2N      -0.5668
     39 O39       -18.3122   49.9084   -3.4703 O.2         1 O2N      -0.3883
     40 O40       -13.7988   47.3641    1.3865 O.co2       1 O2N      -0.5668
     41 O41       -10.3713   44.6842   -1.4141 O.3         1 O2N      -0.2947
     42 O42       -11.5438   45.1264    0.6181 O.3         1 O2N      -0.2890
     43 O43       -18.4170   55.9254   -3.8965 O.3         1 O2N      -0.3255
     44 O44       -12.2391   51.9191    2.1135 O.3         1 O2N      -0.3255
     45 H1        -14.8171   49.2169   -7.3327 H           1 O2N       0.0572
     46 H2        -15.4704   46.9021   -7.6454 H           1 O2N       0.0635
     47 H3        -15.5903   50.4437   -5.4200 H           1 O2N       0.0651
     48 H4        -16.7533   45.7722   -5.9634 H           1 O2N       0.0570
     49 H5        -13.9687   45.9818   -3.8486 H           1 O2N       0.0445
     50 H6        -15.3876   52.6056   -3.4708 H           1 O2N       0.0534
     51 H7        -18.9031   52.4110   -1.1368 H           1 O2N       0.0534
     52 H8        -14.4840   49.3960   -0.8527 H           1 O2N       0.0534
     53 H9        -15.9761   53.2544    0.0199 H           1 O2N       0.0534
     54 H10       -11.6684   45.2247   -3.7465 H           1 O2N       0.0514
     55 H11       -16.1743   54.6464   -4.4727 H           1 O2N       0.0526
     56 H12       -19.6552   54.4776   -2.1125 H           1 O2N       0.0526
     57 H13       -12.6832   49.7609    0.6803 H           1 O2N       0.0526
     58 H14       -14.1699   53.5978    1.5442 H           1 O2N       0.0526
     59 H15       -15.8165   42.0755   -1.2898 H           1 O2N       0.0292
     60 H16       -17.1553   43.1211   -1.4874 H           1 O2N       0.0292
     61 H17       -14.6466   43.1790   -2.9259 H           1 O2N       0.0725
     62 H18        -9.5645   45.6082    0.2462 H           1 O2N       0.0973
     63 H19        -9.8918   43.8755    0.4330 H           1 O2N       0.0973
     64 H20       -18.2369   57.9739   -3.7907 H           1 O2N       0.0575
     65 H21       -16.7034   57.1087   -3.6500 H           1 O2N       0.0575
     66 H22       -17.8439   57.1451   -2.2786 H           1 O2N       0.0575
     67 H23       -11.6787   51.7535    4.0851 H           1 O2N       0.0575
     68 H24       -12.7306   50.4467    3.5249 H           1 O2N       0.0575
     69 H25       -13.4032   52.0667    3.8589 H           1 O2N       0.0575
     70 H26       -18.3706   45.9993   -4.0000 H           1 O2N       0.0995
     71 H27       -18.1163   47.2566   -2.8562 H           1 O2N       0.0995
     72 H28       -15.5901   47.5462   -2.3148 H           1 O2N       0.0966
     73 H29       -16.1432   46.6716   -0.9345 H           1 O2N       0.0966
     74 H30       -16.9567   44.1059   -4.0835 H           1 O2N       0.0998
     75 H31       -15.3807   44.8997   -4.2275 H           1 O2N       0.0998
     76 H32       -17.3311   50.6326   -0.9065 H           1 O2N       0.0837
     77 H33       -15.3625   49.7805   -2.6515 H           1 O2N       0.1893
     78 H34       -17.2787   45.3154   -2.0373 H           1 O2N       0.2082
@<TRIPOS>BOND
     1     1     2  ar
     2     3     1  ar
     3     4     2  ar
     4    15     3  ar
     5    19     4  ar
     6     5    10  ar
     7    20     5  ar
     8     6    11  ar
     9    17     6  ar
    10     7    12  ar
    11    17     7  ar
    12     8    13  ar
    13    18     8  ar
    14     9    14  ar
    15    18     9  ar
    16    10    21  ar
    17    11    23  ar
    18    12    23  ar
    19    13    24  ar
    20    14    24  ar
    21    15    19  ar
    22    27    15   1
    23    20    16  ar
    24    16    22  ar
    25    16    28   1
    26    35    17   1
    27    35    18   1
    28    19    32   1
    29    33    20   1
    30    22    21  ar
    31    21    41   1
    32    22    42   1
    33    23    43   1
    34    24    44   1
    35    26    25   2
    36    34    26   1
    37    36    27  am
    38    27    39   2
    39    28    38  ar
    40    28    40  ar
    41    29    41   1
    42    42    29   1
    43    43    30   1
    44    44    31   1
    45    32    37   1
    46    37    33   1
    47    37    34   1
    48    35    36   1
    49     1    45   1
    50     2    46   1
    51     3    47   1
    52     4    48   1
    53     5    49   1
    54     6    50   1
    55     7    51   1
    56     8    52   1
    57     9    53   1
    58    10    54   1
    59    11    55   1
    60    12    56   1
    61    13    57   1
    62    14    58   1
    63    25    59   1
    64    25    60   1
    65    26    61   1
    66    29    62   1
    67    29    63   1
    68    30    64   1
    69    30    65   1
    70    30    66   1
    71    31    67   1
    72    31    68   1
    73    31    69   1
    74    32    70   1
    75    32    71   1
    76    33    72   1
    77    33    73   1
    78    34    74   1
    79    34    75   1
    80    35    76   1
    81    36    77   1
    82    37    78   1
@<TRIPOS>SUBSTRUCTURE
     1  O2N      1

