@<TRIPOS>MOLECULE
3zso_ligand_030
    78    82
SMALL
GAST_HUCK
****
This file was generated by PARSER (from files_GN.cpp)

@<TRIPOS>ATOM
      1 C1         -8.3512   46.4900    2.9249 C.ar        1 O2N      -0.0630
      2 C2         -9.0192   47.6898    3.1987 C.ar        1 O2N      -0.0640
      3 C3         -8.9106   45.5666    2.0243 C.ar        1 O2N      -0.0483
      4 C4        -10.2520   47.9633    2.5893 C.ar        1 O2N      -0.0493
      5 C5        -15.1834   50.0446   -1.4048 C.ar        1 O2N      -0.0712
      6 C6        -12.5524   45.2615   -3.3737 C.ar        1 O2N      -0.0648
      7 C7        -13.1003   43.4105   -1.9079 C.ar        1 O2N      -0.0648
      8 C8         -8.7858   42.9258   -1.0333 C.ar        1 O2N      -0.0648
      9 C9        -10.4542   41.7801   -2.3703 C.ar        1 O2N      -0.0648
     10 C10       -16.1173   49.8459   -2.4370 C.ar        1 O2N      -0.0449
     11 C11       -13.8602   45.2254   -3.8942 C.ar        1 O2N      -0.0392
     12 C12       -14.3769   43.3403   -2.4709 C.ar        1 O2N      -0.0392
     13 C13        -8.1509   41.6996   -0.7618 C.ar        1 O2N      -0.0392
     14 C14        -9.8267   40.5527   -2.0990 C.ar        1 O2N      -0.0392
     15 C15       -10.1422   45.8406    1.3789 C.ar        1 O2N       0.0566
     16 C16       -15.1663   47.6301   -0.9018 C.ar        1 O2N       0.0376
     17 C17       -12.1270   44.3115   -2.4066 C.ar        1 O2N      -0.0192
     18 C18        -9.9919   42.9807   -1.7814 C.ar        1 O2N      -0.0192
     19 C19       -10.8371   47.0485    1.6729 C.ar        1 O2N       0.0220
     20 C20       -14.6956   48.9519   -0.6207 C.ar        1 O2N      -0.0032
     21 C21       -16.5466   48.5416   -2.7176 C.ar        1 O2N       0.1200
     22 C22       -16.0592   47.4609   -1.9936 C.ar        1 O2N       0.1327
     23 C23       -14.7595   44.2101   -3.4985 C.ar        1 O2N       0.0839
     24 C24        -8.7015   40.4974   -1.2592 C.ar        1 O2N       0.0839
     25 C25       -10.6137   50.2350   -2.4582 C.2         1 O2N      -0.1125
     26 C26       -11.5206   49.9768   -1.4968 C.2         1 O2N      -0.0447
     27 C27       -10.6098   44.9074    0.4749 C.2         1 O2N       0.2037
     28 C28       -14.8703   46.5099   -0.1101 C.2         1 O2N       0.0515
     29 C29       -17.3465   46.7388   -3.5875 C.3         1 O2N       0.1864
     30 C30       -16.1552   43.9717   -5.4224 C.3         1 O2N       0.0579
     31 C31        -8.2117   38.9164    0.3930 C.3         1 O2N       0.0579
     32 C32       -12.2034   47.3610    1.1568 C.3         1 O2N       0.0086
     33 C33       -13.7279   49.2720    0.4908 C.3         1 O2N       0.0003
     34 C34       -11.6712   48.6694   -0.9043 C.3         1 O2N      -0.0011
     35 C35       -10.6919   44.3096   -1.9458 C.3         1 O2N       0.0982
     36 N36       -10.5339   45.1944   -0.8251 N.am        1 O2N      -0.2653
     37 N37       -12.3368   48.6679    0.4530 N.4         1 O2N       0.2715
     38 O38       -14.4188   45.3612   -0.6957 O.co2       1 O2N      -0.5668
     39 O39       -10.9612   43.8094    0.8810 O.2         1 O2N      -0.3883
     40 O40       -15.1291   46.4943    1.2038 O.co2       1 O2N      -0.5668
     41 O41       -17.4590   48.1713   -3.6409 O.3         1 O2N      -0.2947
     42 O42       -16.6516   46.3135   -2.4039 O.3         1 O2N      -0.2890
     43 O43       -16.0415   44.1462   -3.9981 O.3         1 O2N      -0.3255
     44 O44        -8.1210   39.2893   -0.9951 O.3         1 O2N      -0.3255
     45 H1         -7.4606   46.2817    3.3822 H           1 O2N       0.0572
     46 H2         -8.6128   48.3648    3.8587 H           1 O2N       0.0635
     47 H3         -8.4049   44.6953    1.8413 H           1 O2N       0.0651
     48 H4        -10.7368   48.8331    2.8394 H           1 O2N       0.0570
     49 H5        -14.8690   51.0056   -1.2242 H           1 O2N       0.0445
     50 H6        -11.9102   45.9703   -3.7091 H           1 O2N       0.0534
     51 H7        -12.8467   42.7418   -1.1623 H           1 O2N       0.0534
     52 H8         -8.3700   43.7725   -0.6460 H           1 O2N       0.0534
     53 H9        -11.2609   41.7698   -2.9867 H           1 O2N       0.0534
     54 H10       -16.4617   50.6336   -2.9896 H           1 O2N       0.0514
     55 H11       -14.1408   45.9234   -4.5798 H           1 O2N       0.0526
     56 H12       -15.0556   42.6536   -2.1102 H           1 O2N       0.0526
     57 H13        -7.3091   41.6820   -0.1883 H           1 O2N       0.0526
     58 H14       -10.1979   39.6923   -2.5100 H           1 O2N       0.0526
     59 H15       -10.5375   51.1454   -2.8390 H           1 O2N       0.0292
     60 H16       -10.0156   49.5194   -2.7995 H           1 O2N       0.0292
     61 H17       -12.0810   50.7328   -1.1800 H           1 O2N       0.0725
     62 H18       -16.7945   46.3970   -4.4665 H           1 O2N       0.0973
     63 H19       -18.3409   46.2890   -3.6053 H           1 O2N       0.0973
     64 H20       -17.2134   43.8755   -5.6697 H           1 O2N       0.0575
     65 H21       -15.6445   43.0690   -5.7647 H           1 O2N       0.0575
     66 H22       -15.7626   44.8328   -5.9686 H           1 O2N       0.0575
     67 H23        -7.7631   37.9312    0.5031 H           1 O2N       0.0575
     68 H24        -9.2519   38.8648    0.7248 H           1 O2N       0.0575
     69 H25        -7.6655   39.6151    1.0296 H           1 O2N       0.0575
     70 H26       -12.8395   47.3362    2.0432 H           1 O2N       0.0995
     71 H27       -12.5593   46.5717    0.4946 H           1 O2N       0.0995
     72 H28       -14.2273   49.0412    1.4368 H           1 O2N       0.0966
     73 H29       -13.5743   50.3530    0.5556 H           1 O2N       0.0966
     74 H30       -10.6635   48.2564   -0.7997 H           1 O2N       0.0998
     75 H31       -12.2229   48.0146   -1.5865 H           1 O2N       0.0998
     76 H32       -10.1028   44.7872   -2.7335 H           1 O2N       0.0837
     77 H33       -10.2010   46.0846   -1.0401 H           1 O2N       0.1893
     78 H34       -11.7769   49.3276    1.0052 H           1 O2N       0.2082
@<TRIPOS>BOND
     1     1     2  ar
     2     3     1  ar
     3     4     2  ar
     4    15     3  ar
     5    19     4  ar
     6     5    10  ar
     7    20     5  ar
     8     6    11  ar
     9    17     6  ar
    10     7    12  ar
    11    17     7  ar
    12     8    13  ar
    13    18     8  ar
    14     9    14  ar
    15    18     9  ar
    16    10    21  ar
    17    11    23  ar
    18    12    23  ar
    19    13    24  ar
    20    14    24  ar
    21    15    19  ar
    22    27    15   1
    23    20    16  ar
    24    16    22  ar
    25    16    28   1
    26    35    17   1
    27    35    18   1
    28    19    32   1
    29    33    20   1
    30    22    21  ar
    31    21    41   1
    32    22    42   1
    33    23    43   1
    34    24    44   1
    35    26    25   2
    36    34    26   1
    37    36    27  am
    38    27    39   2
    39    28    38  ar
    40    28    40  ar
    41    29    41   1
    42    42    29   1
    43    43    30   1
    44    44    31   1
    45    32    37   1
    46    37    33   1
    47    37    34   1
    48    35    36   1
    49     1    45   1
    50     2    46   1
    51     3    47   1
    52     4    48   1
    53     5    49   1
    54     6    50   1
    55     7    51   1
    56     8    52   1
    57     9    53   1
    58    10    54   1
    59    11    55   1
    60    12    56   1
    61    13    57   1
    62    14    58   1
    63    25    59   1
    64    25    60   1
    65    26    61   1
    66    29    62   1
    67    29    63   1
    68    30    64   1
    69    30    65   1
    70    30    66   1
    71    31    67   1
    72    31    68   1
    73    31    69   1
    74    32    70   1
    75    32    71   1
    76    33    72   1
    77    33    73   1
    78    34    74   1
    79    34    75   1
    80    35    76   1
    81    36    77   1
    82    37    78   1
@<TRIPOS>SUBSTRUCTURE
     1  O2N      1

