@<TRIPOS>MOLECULE
3zso_ligand_066
    78    82
SMALL
GAST_HUCK
****
This file was generated by PARSER (from files_GN.cpp)

@<TRIPOS>ATOM
      1 C1        -22.6558   50.8348   -0.3070 C.ar        1 O2N      -0.0630
      2 C2        -22.3203   50.1960    0.8932 C.ar        1 O2N      -0.0640
      3 C3        -22.5529   50.1392   -1.5204 C.ar        1 O2N      -0.0483
      4 C4        -21.9067   48.8546    0.8769 C.ar        1 O2N      -0.0493
      5 C5        -24.0950   47.2017    2.3197 C.ar        1 O2N      -0.0712
      6 C6        -19.3518   46.1569   -5.7177 C.ar        1 O2N      -0.0648
      7 C7        -18.5534   47.2316   -3.6934 C.ar        1 O2N      -0.0648
      8 C8        -21.5374   50.0990   -6.1446 C.ar        1 O2N      -0.0648
      9 C9        -19.1633   49.6315   -6.3326 C.ar        1 O2N      -0.0648
     10 C10       -23.8200   47.7545    3.5839 C.ar        1 O2N      -0.0449
     11 C11       -18.2955   45.2307   -5.6450 C.ar        1 O2N      -0.0392
     12 C12       -17.4887   46.3120   -3.6232 C.ar        1 O2N      -0.0392
     13 C13       -21.3898   51.2002   -7.0108 C.ar        1 O2N      -0.0392
     14 C14       -19.0145   50.7289   -7.1984 C.ar        1 O2N      -0.0392
     15 C15       -22.1779   48.7694   -1.5450 C.ar        1 O2N       0.0566
     16 C16       -22.6288   45.3060    2.8026 C.ar        1 O2N       0.0376
     17 C17       -19.5135   47.1637   -4.7355 C.ar        1 O2N      -0.0192
     18 C18       -20.4300   49.2903   -5.7882 C.ar        1 O2N      -0.0192
     19 C19       -21.8865   48.0963   -0.3189 C.ar        1 O2N       0.0220
     20 C20       -23.4622   46.0068    1.8793 C.ar        1 O2N      -0.0032
     21 C21       -22.9398   47.0842    4.4420 C.ar        1 O2N       0.1200
     22 C22       -22.3758   45.8718    4.0695 C.ar        1 O2N       0.1327
     23 C23       -17.3469   45.3130   -4.6051 C.ar        1 O2N       0.0839
     24 C24       -20.1303   51.5102   -7.5536 C.ar        1 O2N       0.0839
     25 C25       -23.0292   42.2549   -1.8358 C.2         1 O2N      -0.1125
     26 C26       -22.9267   43.5858   -1.8463 C.2         1 O2N      -0.0447
     27 C27       -22.0020   48.1754   -2.7832 C.2         1 O2N       0.2037
     28 C28       -22.0575   44.0553    2.5188 C.2         1 O2N       0.0515
     29 C29       -21.8723   46.2853    6.1339 C.3         1 O2N       0.1864
     30 C30       -15.2874   44.5405   -5.4647 C.3         1 O2N       0.0579
     31 C31       -20.1715   52.3270   -9.7536 C.3         1 O2N       0.0579
     32 C32       -21.4573   46.6590   -0.2532 C.3         1 O2N       0.0086
     33 C33       -23.6744   45.5462    0.4631 C.3         1 O2N       0.0003
     34 C34       -21.9955   44.3330   -1.0126 C.3         1 O2N      -0.0011
     35 C35       -20.6558   48.1305   -4.8638 C.3         1 O2N       0.0982
     36 N36       -21.0505   48.6418   -3.5802 N.am        1 O2N      -0.2653
     37 N37       -22.5465   45.6561   -0.5420 N.4         1 O2N       0.2715
     38 O38       -20.7296   44.0079    2.2758 O.co2       1 O2N      -0.5668
     39 O39       -22.7206   47.2371   -3.1046 O.2         1 O2N      -0.3883
     40 O40       -22.6179   42.9567    3.0701 O.co2       1 O2N      -0.5668
     41 O41       -22.5450   47.4688    5.6691 O.3         1 O2N      -0.2947
     42 O42       -21.5702   45.3962    5.0426 O.3         1 O2N      -0.2890
     43 O43       -16.3408   44.3888   -4.4942 O.3         1 O2N      -0.3255
     44 O44       -19.9672   52.6060   -8.3580 O.3         1 O2N      -0.3255
     45 H1        -22.9440   51.8156   -0.3011 H           1 O2N       0.0572
     46 H2        -22.3692   50.7087    1.7769 H           1 O2N       0.0635
     47 H3        -22.7591   50.6410   -2.3881 H           1 O2N       0.0651
     48 H4        -21.6272   48.4323    1.7653 H           1 O2N       0.0570
     49 H5        -24.7286   47.7114    1.7002 H           1 O2N       0.0445
     50 H6        -20.0107   46.0822   -6.4971 H           1 O2N       0.0534
     51 H7        -18.6206   47.9525   -2.9716 H           1 O2N       0.0534
     52 H8        -22.4667   49.8950   -5.7729 H           1 O2N       0.0534
     53 H9        -18.3301   49.0898   -6.0965 H           1 O2N       0.0534
     54 H10       -24.2467   48.6388    3.8744 H           1 O2N       0.0514
     55 H11       -18.2161   44.4935   -6.3489 H           1 O2N       0.0526
     56 H12       -16.8170   46.3717   -2.8512 H           1 O2N       0.0526
     57 H13       -22.2015   51.7767   -7.2417 H           1 O2N       0.0526
     58 H14       -18.0905   50.9605   -7.5667 H           1 O2N       0.0526
     59 H15       -23.6362   41.7916   -2.4732 H           1 O2N       0.0292
     60 H16       -22.4911   41.6998   -1.2099 H           1 O2N       0.0292
     61 H17       -23.4434   44.0904   -2.5318 H           1 O2N       0.0725
     62 H18       -22.5193   45.7664    6.8469 H           1 O2N       0.0973
     63 H19       -20.9490   46.5635    6.6485 H           1 O2N       0.0973
     64 H20       -14.5544   43.7554   -5.2850 H           1 O2N       0.0575
     65 H21       -14.7881   45.5073   -5.3643 H           1 O2N       0.0575
     66 H22       -15.6572   44.4267   -6.4872 H           1 O2N       0.0575
     67 H23       -19.9770   53.2402  -10.3153 H           1 O2N       0.0575
     68 H24       -21.2027   52.0200   -9.9485 H           1 O2N       0.0575
     69 H25       -19.4867   51.5540  -10.1139 H           1 O2N       0.0575
     70 H26       -21.0104   46.4167    0.7137 H           1 O2N       0.0995
     71 H27       -20.6371   46.5703   -0.9694 H           1 O2N       0.0995
     72 H28       -24.4968   46.1150    0.0196 H           1 O2N       0.0966
     73 H29       -24.0547   44.5227    0.5221 H           1 O2N       0.0966
     74 H30       -21.1208   44.4878   -1.6494 H           1 O2N       0.0998
     75 H31       -21.6574   43.7394   -0.1622 H           1 O2N       0.0998
     76 H32       -21.4976   47.5685   -5.2872 H           1 O2N       0.0837
     77 H33       -20.5047   49.3611   -3.2257 H           1 O2N       0.1893
     78 H34       -22.9991   46.0271   -1.3766 H           1 O2N       0.2082
@<TRIPOS>BOND
     1     1     2  ar
     2     3     1  ar
     3     4     2  ar
     4    15     3  ar
     5    19     4  ar
     6     5    10  ar
     7    20     5  ar
     8     6    11  ar
     9    17     6  ar
    10     7    12  ar
    11    17     7  ar
    12     8    13  ar
    13    18     8  ar
    14     9    14  ar
    15    18     9  ar
    16    10    21  ar
    17    11    23  ar
    18    12    23  ar
    19    13    24  ar
    20    14    24  ar
    21    15    19  ar
    22    27    15   1
    23    20    16  ar
    24    16    22  ar
    25    16    28   1
    26    35    17   1
    27    35    18   1
    28    19    32   1
    29    33    20   1
    30    22    21  ar
    31    21    41   1
    32    22    42   1
    33    23    43   1
    34    24    44   1
    35    26    25   2
    36    34    26   1
    37    36    27  am
    38    27    39   2
    39    28    38  ar
    40    28    40  ar
    41    29    41   1
    42    42    29   1
    43    43    30   1
    44    44    31   1
    45    32    37   1
    46    37    33   1
    47    37    34   1
    48    35    36   1
    49     1    45   1
    50     2    46   1
    51     3    47   1
    52     4    48   1
    53     5    49   1
    54     6    50   1
    55     7    51   1
    56     8    52   1
    57     9    53   1
    58    10    54   1
    59    11    55   1
    60    12    56   1
    61    13    57   1
    62    14    58   1
    63    25    59   1
    64    25    60   1
    65    26    61   1
    66    29    62   1
    67    29    63   1
    68    30    64   1
    69    30    65   1
    70    30    66   1
    71    31    67   1
    72    31    68   1
    73    31    69   1
    74    32    70   1
    75    32    71   1
    76    33    72   1
    77    33    73   1
    78    34    74   1
    79    34    75   1
    80    35    76   1
    81    36    77   1
    82    37    78   1
@<TRIPOS>SUBSTRUCTURE
     1  O2N      1

