@<TRIPOS>MOLECULE
3zso_ligand_095
    78    82
SMALL
GAST_HUCK
****
This file was generated by PARSER (from files_GN.cpp)

@<TRIPOS>ATOM
      1 C1        -10.0069   47.6540    2.5980 C.ar        1 O2N      -0.0630
      2 C2        -11.0160   48.4826    3.1022 C.ar        1 O2N      -0.0640
      3 C3        -10.3115   46.6946    1.6202 C.ar        1 O2N      -0.0483
      4 C4        -12.3196   48.3740    2.5967 C.ar        1 O2N      -0.0493
      5 C5        -16.2046   45.3818   -1.1772 C.ar        1 O2N      -0.0712
      6 C6        -12.7820   44.9361   -3.5404 C.ar        1 O2N      -0.0648
      7 C7        -13.4348   43.2106   -1.9675 C.ar        1 O2N      -0.0648
      8 C8        -10.3632   41.8852   -2.2757 C.ar        1 O2N      -0.0648
      9 C9        -10.0048   42.7205   -0.0268 C.ar        1 O2N      -0.0648
     10 C10       -17.4484   44.8125   -1.5093 C.ar        1 O2N      -0.0449
     11 C11       -14.0631   44.8891   -4.1255 C.ar        1 O2N      -0.0392
     12 C12       -14.7074   43.1466   -2.5664 C.ar        1 O2N      -0.0392
     13 C13        -9.8216   40.6417   -1.9043 C.ar        1 O2N      -0.0392
     14 C14        -9.4428   41.4837    0.3404 C.ar        1 O2N      -0.0392
     15 C15       -11.6306   46.5525    1.1150 C.ar        1 O2N       0.0566
     16 C16       -16.7039   47.3424   -2.5644 C.ar        1 O2N       0.0376
     17 C17       -12.4449   44.1077   -2.4426 C.ar        1 O2N      -0.0192
     18 C18       -10.4965   42.9404   -1.3362 C.ar        1 O2N      -0.0192
     19 C19       -12.6490   47.4535    1.5650 C.ar        1 O2N       0.0220
     20 C20       -15.8054   46.6414   -1.6990 C.ar        1 O2N      -0.0032
     21 C21       -18.3039   45.5134   -2.3725 C.ar        1 O2N       0.1200
     22 C22       -17.9461   46.7506   -2.8803 C.ar        1 O2N       0.1327
     23 C23       -15.0326   43.9797   -3.6546 C.ar        1 O2N       0.0839
     24 C24        -9.3454   40.4376   -0.5957 C.ar        1 O2N       0.0839
     25 C25       -14.0087   50.9348    0.8837 C.2         1 O2N      -0.1125
     26 C26       -13.0527   50.2611    0.2333 C.2         1 O2N      -0.0447
     27 C27       -11.8686   45.4911    0.2472 C.2         1 O2N       0.2037
     28 C28       -16.4274   48.6162   -3.0935 C.2         1 O2N       0.0515
     29 C29       -19.9823   46.3062   -3.4734 C.3         1 O2N       0.1864
     30 C30       -16.5459   43.7018   -5.4922 C.3         1 O2N       0.0579
     31 C31        -7.5462   38.9168   -0.6734 C.3         1 O2N       0.0579
     32 C32       -14.0451   47.5163    1.0018 C.3         1 O2N       0.0086
     33 C33       -14.4017   47.1029   -1.4686 C.3         1 O2N       0.0003
     34 C34       -13.3144   49.2405   -0.7655 C.3         1 O2N      -0.0011
     35 C35       -11.0998   44.2397   -1.7857 C.3         1 O2N       0.0982
     36 N36       -11.1006   45.3170   -0.8259 N.am        1 O2N      -0.2653
     37 N37       -14.2473   48.1214   -0.3717 N.4         1 O2N       0.2715
     38 O38       -16.5932   48.8629   -4.4127 O.co2       1 O2N      -0.5668
     39 O39       -12.7333   44.6793    0.5444 O.2         1 O2N      -0.3883
     40 O40       -16.3129   49.6712   -2.2555 O.co2       1 O2N      -0.5668
     41 O41       -19.5177   45.1204   -2.8058 O.3         1 O2N      -0.2947
     42 O42       -18.9154   47.2474   -3.6771 O.3         1 O2N      -0.2890
     43 O43       -16.3309   43.9853   -4.0987 O.3         1 O2N      -0.3255
     44 O44        -8.8670   39.2208   -0.1940 O.3         1 O2N      -0.3255
     45 H1         -9.0536   47.7401    2.9569 H           1 O2N       0.0572
     46 H2        -10.8028   49.1727    3.8292 H           1 O2N       0.0635
     47 H3         -9.5588   46.0796    1.3059 H           1 O2N       0.0651
     48 H4        -13.0270   49.0030    2.9819 H           1 O2N       0.0570
     49 H5        -15.5859   44.8580   -0.5558 H           1 O2N       0.0445
     50 H6        -12.1065   45.6144   -3.8960 H           1 O2N       0.0534
     51 H7        -13.2459   42.6087   -1.1637 H           1 O2N       0.0534
     52 H8        -10.6912   42.0080   -3.2364 H           1 O2N       0.0534
     53 H9        -10.0496   43.4545    0.6808 H           1 O2N       0.0534
     54 H10       -17.7175   43.8969   -1.1455 H           1 O2N       0.0514
     55 H11       -14.2992   45.5418   -4.8772 H           1 O2N       0.0526
     56 H12       -15.4154   42.5124   -2.1845 H           1 O2N       0.0526
     57 H13        -9.7729   39.8878   -2.5934 H           1 O2N       0.0526
     58 H14        -9.1041   41.3466    1.2940 H           1 O2N       0.0526
     59 H15       -13.7599   51.5869    1.5886 H           1 O2N       0.0292
     60 H16       -14.9715   50.8073    0.6736 H           1 O2N       0.0292
     61 H17       -12.1037   50.4729    0.4442 H           1 O2N       0.0725
     62 H18       -20.7584   46.7760   -2.8646 H           1 O2N       0.0973
     63 H19       -20.4185   46.0353   -4.4362 H           1 O2N       0.0973
     64 H20       -17.6248   43.6787   -5.6634 H           1 O2N       0.0575
     65 H21       -16.1305   42.7292   -5.7751 H           1 O2N       0.0575
     66 H22       -16.1202   44.4827   -6.1288 H           1 O2N       0.0575
     67 H23        -7.2266   37.9771   -0.2188 H           1 O2N       0.0575
     68 H24        -6.8274   39.6919   -0.3939 H           1 O2N       0.0575
     69 H25        -7.5411   38.7892   -1.7592 H           1 O2N       0.0575
     70 H26       -14.6788   48.1165    1.6612 H           1 O2N       0.0995
     71 H27       -14.4791   46.5178    1.0672 H           1 O2N       0.0995
     72 H28       -14.0250   47.4769   -2.4194 H           1 O2N       0.0966
     73 H29       -13.7741   46.2417   -1.2704 H           1 O2N       0.0966
     74 H30       -12.3631   48.8112   -1.1003 H           1 O2N       0.0998
     75 H31       -13.7467   49.7749   -1.6158 H           1 O2N       0.0998
     76 H32       -10.4012   44.5841   -2.5555 H           1 O2N       0.0837
     77 H33       -10.4424   46.0139   -0.9860 H           1 O2N       0.1893
     78 H34       -15.1633   48.5773   -0.3129 H           1 O2N       0.2082
@<TRIPOS>BOND
     1     1     2  ar
     2     3     1  ar
     3     4     2  ar
     4    15     3  ar
     5    19     4  ar
     6     5    10  ar
     7    20     5  ar
     8     6    11  ar
     9    17     6  ar
    10     7    12  ar
    11    17     7  ar
    12     8    13  ar
    13    18     8  ar
    14     9    14  ar
    15    18     9  ar
    16    10    21  ar
    17    11    23  ar
    18    12    23  ar
    19    13    24  ar
    20    14    24  ar
    21    15    19  ar
    22    27    15   1
    23    20    16  ar
    24    16    22  ar
    25    16    28   1
    26    35    17   1
    27    35    18   1
    28    19    32   1
    29    33    20   1
    30    22    21  ar
    31    21    41   1
    32    22    42   1
    33    23    43   1
    34    24    44   1
    35    26    25   2
    36    34    26   1
    37    36    27  am
    38    27    39   2
    39    28    38  ar
    40    28    40  ar
    41    29    41   1
    42    42    29   1
    43    43    30   1
    44    44    31   1
    45    32    37   1
    46    37    33   1
    47    37    34   1
    48    35    36   1
    49     1    45   1
    50     2    46   1
    51     3    47   1
    52     4    48   1
    53     5    49   1
    54     6    50   1
    55     7    51   1
    56     8    52   1
    57     9    53   1
    58    10    54   1
    59    11    55   1
    60    12    56   1
    61    13    57   1
    62    14    58   1
    63    25    59   1
    64    25    60   1
    65    26    61   1
    66    29    62   1
    67    29    63   1
    68    30    64   1
    69    30    65   1
    70    30    66   1
    71    31    67   1
    72    31    68   1
    73    31    69   1
    74    32    70   1
    75    32    71   1
    76    33    72   1
    77    33    73   1
    78    34    74   1
    79    34    75   1
    80    35    76   1
    81    36    77   1
    82    37    78   1
@<TRIPOS>SUBSTRUCTURE
     1  O2N      1

