@<TRIPOS>MOLECULE
3zso_ligand_065
    78    82
SMALL
GAST_HUCK
****
This file was generated by PARSER (from files_GN.cpp)

@<TRIPOS>ATOM
      1 C1         -9.5706   41.3366   -1.9554 C.ar        1 O2N      -0.0630
      2 C2         -8.9532   40.9640   -0.7631 C.ar        1 O2N      -0.0640
      3 C3        -10.4005   42.4650   -1.9946 C.ar        1 O2N      -0.0483
      4 C4         -9.1774   41.7234    0.4008 C.ar        1 O2N      -0.0493
      5 C5         -8.8388   47.0015    3.9269 C.ar        1 O2N      -0.0712
      6 C6        -10.4986   47.9178   -1.8219 C.ar        1 O2N      -0.0648
      7 C7        -12.6782   48.5673   -1.0121 C.ar        1 O2N      -0.0648
      8 C8        -14.4968   45.8155   -0.8000 C.ar        1 O2N      -0.0648
      9 C9        -14.6314   45.6787   -3.2142 C.ar        1 O2N      -0.0648
     10 C10        -9.1127   47.6618    5.1346 C.ar        1 O2N      -0.0449
     11 C11        -9.9673   49.1501   -1.3912 C.ar        1 O2N      -0.0392
     12 C12       -12.1493   49.8005   -0.5762 C.ar        1 O2N      -0.0392
     13 C13       -15.8432   45.4037   -0.6924 C.ar        1 O2N      -0.0392
     14 C14       -15.9767   45.2829   -3.1117 C.ar        1 O2N      -0.0392
     15 C15       -10.6689   43.2329   -0.8284 C.ar        1 O2N       0.0566
     16 C16       -11.1312   47.3915    3.1500 C.ar        1 O2N       0.0376
     17 C17       -11.8597   47.5823   -1.6125 C.ar        1 O2N      -0.0192
     18 C18       -13.8625   45.9481   -2.0523 C.ar        1 O2N      -0.0192
     19 C19       -10.0098   42.8650    0.3984 C.ar        1 O2N       0.0220
     20 C20        -9.8343   46.8303    2.9259 C.ar        1 O2N      -0.0032
     21 C21       -10.3896   48.1992    5.3334 C.ar        1 O2N       0.1200
     22 C22       -11.3700   48.0837    4.3624 C.ar        1 O2N       0.1327
     23 C23       -10.7867   50.0991   -0.7420 C.ar        1 O2N       0.0839
     24 C24       -16.5896   45.1576   -1.8476 C.ar        1 O2N       0.0839
     25 C25        -5.9253   42.5738    1.9310 C.2         1 O2N      -0.1125
     26 C26        -7.1316   43.0884    2.2456 C.2         1 O2N      -0.0447
     27 C27       -11.6072   44.2317   -0.9342 C.2         1 O2N       0.2037
     28 C28       -12.2007   47.2384    2.2431 C.2         1 O2N       0.0515
     29 C29       -12.1557   49.2064    6.0592 C.3         1 O2N       0.1864
     30 C30        -9.1379   51.4677    0.3977 C.3         1 O2N       0.0579
     31 C31       -18.8670   45.4387   -2.4354 C.3         1 O2N       0.0579
     32 C32       -10.1225   43.6252    1.6960 C.3         1 O2N       0.0086
     33 C33        -9.4268   46.0825    1.6918 C.3         1 O2N       0.0003
     34 C34        -7.6570   44.2886    1.6219 C.3         1 O2N      -0.0011
     35 C35       -12.3907   46.2893   -2.1791 C.3         1 O2N       0.0982
     36 N36       -11.5320   45.1717   -1.8697 N.am        1 O2N      -0.2653
     37 N37        -9.0669   44.6525    2.0256 N.4         1 O2N       0.2715
     38 O38       -13.0232   48.2671    1.9403 O.co2       1 O2N      -0.5668
     39 O39       -12.6524   44.0508   -0.2983 O.2         1 O2N      -0.3883
     40 O40       -12.7033   46.0033    2.0505 O.co2       1 O2N      -0.5668
     41 O41       -10.8124   48.8519    6.4291 O.3         1 O2N      -0.2947
     42 O42       -12.5207   48.6555    4.7798 O.3         1 O2N      -0.2890
     43 O43       -10.3837   51.3388   -0.3036 O.3         1 O2N      -0.3255
     44 O44       -17.8735   44.6920   -1.7163 O.3         1 O2N      -0.3255
     45 H1         -9.4359   40.7764   -2.8021 H           1 O2N       0.0572
     46 H2         -8.3716   40.1257   -0.7289 H           1 O2N       0.0635
     47 H3        -10.8632   42.6929   -2.8822 H           1 O2N       0.0651
     48 H4         -8.7020   41.4116    1.2465 H           1 O2N       0.0570
     49 H5         -7.8975   46.6253    3.7913 H           1 O2N       0.0445
     50 H6         -9.8664   47.2730   -2.2982 H           1 O2N       0.0534
     51 H7        -13.6769   48.4220   -0.8911 H           1 O2N       0.0534
     52 H8        -13.9774   45.9703    0.0635 H           1 O2N       0.0534
     53 H9        -14.2098   45.7447   -4.1369 H           1 O2N       0.0534
     54 H10        -8.3952   47.7518    5.8547 H           1 O2N       0.0514
     55 H11        -8.9805   49.3450   -1.5676 H           1 O2N       0.0526
     56 H12       -12.7754   50.4831   -0.1437 H           1 O2N       0.0526
     57 H13       -16.2533   45.2839    0.2308 H           1 O2N       0.0526
     58 H14       -16.5101   45.0821   -3.9604 H           1 O2N       0.0526
     59 H15        -5.6059   41.7511    2.3774 H           1 O2N       0.0292
     60 H16        -5.3547   42.9983    1.2390 H           1 O2N       0.0292
     61 H17        -7.6704   42.6191    2.9339 H           1 O2N       0.0725
     62 H18       -12.2367   50.2960    6.0198 H           1 O2N       0.0973
     63 H19       -12.8467   48.8384    6.8219 H           1 O2N       0.0973
     64 H20        -9.0891   52.4618    0.8387 H           1 O2N       0.0575
     65 H21        -8.3036   51.3627   -0.2965 H           1 O2N       0.0575
     66 H22        -9.0498   50.7292    1.1972 H           1 O2N       0.0575
     67 H23       -19.8451   45.0377   -2.1732 H           1 O2N       0.0575
     68 H24       -18.7316   45.3289   -3.5113 H           1 O2N       0.0575
     69 H25       -18.8514   46.4971   -2.1695 H           1 O2N       0.0575
     70 H26       -10.0874   42.9138    2.5215 H           1 O2N       0.0995
     71 H27       -11.1134   44.0576    1.7924 H           1 O2N       0.0995
     72 H28        -8.5852   46.6297    1.2523 H           1 O2N       0.0966
     73 H29       -10.1988   46.1216    0.9312 H           1 O2N       0.0966
     74 H30        -7.6058   44.2003    0.5344 H           1 O2N       0.0998
     75 H31        -6.9699   45.0914    1.9059 H           1 O2N       0.0998
     76 H32       -12.2044   46.4288   -3.2482 H           1 O2N       0.0837
     77 H33       -10.7146   45.1327   -2.4049 H           1 O2N       0.1893
     78 H34        -9.0484   44.6415    3.0499 H           1 O2N       0.2082
@<TRIPOS>BOND
     1     1     2  ar
     2     3     1  ar
     3     4     2  ar
     4    15     3  ar
     5    19     4  ar
     6     5    10  ar
     7    20     5  ar
     8     6    11  ar
     9    17     6  ar
    10     7    12  ar
    11    17     7  ar
    12     8    13  ar
    13    18     8  ar
    14     9    14  ar
    15    18     9  ar
    16    10    21  ar
    17    11    23  ar
    18    12    23  ar
    19    13    24  ar
    20    14    24  ar
    21    15    19  ar
    22    27    15   1
    23    20    16  ar
    24    16    22  ar
    25    16    28   1
    26    35    17   1
    27    35    18   1
    28    19    32   1
    29    33    20   1
    30    22    21  ar
    31    21    41   1
    32    22    42   1
    33    23    43   1
    34    24    44   1
    35    26    25   2
    36    34    26   1
    37    36    27  am
    38    27    39   2
    39    28    38  ar
    40    28    40  ar
    41    29    41   1
    42    42    29   1
    43    43    30   1
    44    44    31   1
    45    32    37   1
    46    37    33   1
    47    37    34   1
    48    35    36   1
    49     1    45   1
    50     2    46   1
    51     3    47   1
    52     4    48   1
    53     5    49   1
    54     6    50   1
    55     7    51   1
    56     8    52   1
    57     9    53   1
    58    10    54   1
    59    11    55   1
    60    12    56   1
    61    13    57   1
    62    14    58   1
    63    25    59   1
    64    25    60   1
    65    26    61   1
    66    29    62   1
    67    29    63   1
    68    30    64   1
    69    30    65   1
    70    30    66   1
    71    31    67   1
    72    31    68   1
    73    31    69   1
    74    32    70   1
    75    32    71   1
    76    33    72   1
    77    33    73   1
    78    34    74   1
    79    34    75   1
    80    35    76   1
    81    36    77   1
    82    37    78   1
@<TRIPOS>SUBSTRUCTURE
     1  O2N      1

