@<TRIPOS>MOLECULE
3zso_ligand_078
    78    82
SMALL
GAST_HUCK
****
This file was generated by PARSER (from files_GN.cpp)

@<TRIPOS>ATOM
      1 C1        -20.9088   46.3051   -2.3999 C.ar        1 O2N      -0.0630
      2 C2        -20.1333   45.3134   -1.7883 C.ar        1 O2N      -0.0640
      3 C3        -20.2892   47.3321   -3.1306 C.ar        1 O2N      -0.0483
      4 C4        -18.7381   45.3516   -1.9183 C.ar        1 O2N      -0.0493
      5 C5        -12.7307   44.8729   -2.9706 C.ar        1 O2N      -0.0712
      6 C6        -16.0501   51.9445   -5.5231 C.ar        1 O2N      -0.0648
      7 C7        -16.2517   50.7082   -3.4540 C.ar        1 O2N      -0.0648
      8 C8        -16.8248   49.5967   -8.1506 C.ar        1 O2N      -0.0648
      9 C9        -18.8622   50.0886   -6.9343 C.ar        1 O2N      -0.0648
     10 C10       -11.4982   45.5507   -2.9563 C.ar        1 O2N      -0.0449
     11 C11       -15.6554   53.0883   -4.8045 C.ar        1 O2N      -0.0392
     12 C12       -15.8760   51.8572   -2.7288 C.ar        1 O2N      -0.0392
     13 C13       -17.4820   49.8594   -9.3657 C.ar        1 O2N      -0.0392
     14 C14       -19.5287   50.3426   -8.1488 C.ar        1 O2N      -0.0392
     15 C15       -18.8715   47.3937   -3.2836 C.ar        1 O2N       0.0566
     16 C16       -13.4778   46.1121   -0.9812 C.ar        1 O2N       0.0376
     17 C17       -16.3908   50.7290   -4.8659 C.ar        1 O2N      -0.0192
     18 C18       -17.4970   49.6996   -6.9046 C.ar        1 O2N      -0.0192
     19 C19       -18.0829   46.3531   -2.6821 C.ar        1 O2N       0.0220
     20 C20       -13.7436   45.1424   -2.0063 C.ar        1 O2N      -0.0032
     21 C21       -11.2770   46.5205   -1.9746 C.ar        1 O2N       0.1200
     22 C22       -12.2380   46.7963   -1.0155 C.ar        1 O2N       0.1327
     23 C23       -15.5710   53.0623   -3.3973 C.ar        1 O2N       0.0839
     24 C24       -18.8475   50.2143   -9.3752 C.ar        1 O2N       0.0839
     25 C25       -17.0580   43.0589   -5.7687 C.2         1 O2N      -0.1125
     26 C26       -16.8773   44.3147   -5.3264 C.2         1 O2N      -0.0447
     27 C27       -18.3524   48.5052   -3.9499 C.2         1 O2N       0.2037
     28 C28       -14.3625   46.4223    0.0844 C.2         1 O2N       0.0515
     29 C29       -10.5578   48.1495   -0.7628 C.3         1 O2N       0.1864
     30 C30       -13.9195   54.3081   -2.2489 C.3         1 O2N       0.0579
     31 C31       -20.1361   49.3628  -11.1413 C.3         1 O2N       0.0579
     32 C32       -16.5872   46.2698   -2.6931 C.3         1 O2N       0.0086
     33 C33       -15.0254   44.3693   -2.1369 C.3         1 O2N       0.0003
     34 C34       -15.7274   44.7527   -4.5448 C.3         1 O2N      -0.0011
     35 C35       -16.7574   49.4726   -5.6165 C.3         1 O2N       0.0982
     36 N36       -17.3989   48.4133   -4.8733 N.am        1 O2N      -0.2653
     37 N37       -16.0698   44.9031   -3.0848 N.4         1 O2N       0.2715
     38 O38       -14.6928   45.4935    1.0133 O.co2       1 O2N      -0.5668
     39 O39       -18.8288   49.6001   -3.6782 O.2         1 O2N      -0.3883
     40 O40       -14.6439   47.7084    0.3996 O.co2       1 O2N      -0.5668
     41 O41       -10.1605   47.2511   -1.8069 O.3         1 O2N      -0.2947
     42 O42       -11.7849   47.7255   -0.1535 O.3         1 O2N      -0.2890
     43 O43       -15.2717   54.2164   -2.7158 O.3         1 O2N      -0.3255
     44 O44       -19.4811   50.4983  -10.5555 O.3         1 O2N      -0.3255
     45 H1        -21.9302   46.2777   -2.3063 H           1 O2N       0.0572
     46 H2        -20.5783   44.5686   -1.2408 H           1 O2N       0.0635
     47 H3        -20.8908   48.0462   -3.5528 H           1 O2N       0.0651
     48 H4        -18.1962   44.6344   -1.4250 H           1 O2N       0.0570
     49 H5        -12.8777   44.1576   -3.6897 H           1 O2N       0.0445
     50 H6        -16.0973   52.0157   -6.5435 H           1 O2N       0.0534
     51 H7        -16.4278   49.8487   -2.9304 H           1 O2N       0.0534
     52 H8        -15.8313   49.3566   -8.1793 H           1 O2N       0.0534
     53 H9        -19.3880   50.2114   -6.0688 H           1 O2N       0.0534
     54 H10       -10.7800   45.3344   -3.6525 H           1 O2N       0.0514
     55 H11       -15.4216   53.9489   -5.3091 H           1 O2N       0.0526
     56 H12       -15.8288   51.8200   -1.7041 H           1 O2N       0.0526
     57 H13       -16.9650   49.7967  -10.2495 H           1 O2N       0.0526
     58 H14       -20.5124   50.6286   -8.1443 H           1 O2N       0.0526
     59 H15       -17.8709   42.8231   -6.2827 H           1 O2N       0.0292
     60 H16       -16.3996   42.3433   -5.5809 H           1 O2N       0.0292
     61 H17       -17.5918   44.9744   -5.5224 H           1 O2N       0.0725
     62 H18       -10.6901   49.1497   -1.1768 H           1 O2N       0.0973
     63 H19        -9.7783   48.1958   -0.0042 H           1 O2N       0.0973
     64 H20       -13.7981   55.2677   -1.7485 H           1 O2N       0.0575
     65 H21       -13.2026   54.2617   -3.0715 H           1 O2N       0.0575
     66 H22       -13.7027   53.5197   -1.5266 H           1 O2N       0.0575
     67 H23       -20.5815   49.6790  -12.0832 H           1 O2N       0.0575
     68 H24       -20.9337   48.9869  -10.4972 H           1 O2N       0.0575
     69 H25       -19.4280   48.5588  -11.3528 H           1 O2N       0.0575
     70 H26       -16.3043   46.4911   -1.6633 H           1 O2N       0.0995
     71 H27       -16.1201   47.0394   -3.3052 H           1 O2N       0.0995
     72 H28       -15.5042   44.2729   -1.1666 H           1 O2N       0.0966
     73 H29       -14.7861   43.3397   -2.4178 H           1 O2N       0.0966
     74 H30       -15.3535   45.6957   -4.9560 H           1 O2N       0.0998
     75 H31       -14.9223   44.0199   -4.6706 H           1 O2N       0.0998
     76 H32       -15.7798   49.0440   -5.8620 H           1 O2N       0.0837
     77 H33       -17.0914   47.5167   -5.0764 H           1 O2N       0.1893
     78 H34       -16.8442   44.2507   -2.9506 H           1 O2N       0.2082
@<TRIPOS>BOND
     1     1     2  ar
     2     3     1  ar
     3     4     2  ar
     4    15     3  ar
     5    19     4  ar
     6     5    10  ar
     7    20     5  ar
     8     6    11  ar
     9    17     6  ar
    10     7    12  ar
    11    17     7  ar
    12     8    13  ar
    13    18     8  ar
    14     9    14  ar
    15    18     9  ar
    16    10    21  ar
    17    11    23  ar
    18    12    23  ar
    19    13    24  ar
    20    14    24  ar
    21    15    19  ar
    22    27    15   1
    23    20    16  ar
    24    16    22  ar
    25    16    28   1
    26    35    17   1
    27    35    18   1
    28    19    32   1
    29    33    20   1
    30    22    21  ar
    31    21    41   1
    32    22    42   1
    33    23    43   1
    34    24    44   1
    35    26    25   2
    36    34    26   1
    37    36    27  am
    38    27    39   2
    39    28    38  ar
    40    28    40  ar
    41    29    41   1
    42    42    29   1
    43    43    30   1
    44    44    31   1
    45    32    37   1
    46    37    33   1
    47    37    34   1
    48    35    36   1
    49     1    45   1
    50     2    46   1
    51     3    47   1
    52     4    48   1
    53     5    49   1
    54     6    50   1
    55     7    51   1
    56     8    52   1
    57     9    53   1
    58    10    54   1
    59    11    55   1
    60    12    56   1
    61    13    57   1
    62    14    58   1
    63    25    59   1
    64    25    60   1
    65    26    61   1
    66    29    62   1
    67    29    63   1
    68    30    64   1
    69    30    65   1
    70    30    66   1
    71    31    67   1
    72    31    68   1
    73    31    69   1
    74    32    70   1
    75    32    71   1
    76    33    72   1
    77    33    73   1
    78    34    74   1
    79    34    75   1
    80    35    76   1
    81    36    77   1
    82    37    78   1
@<TRIPOS>SUBSTRUCTURE
     1  O2N      1

