@<TRIPOS>MOLECULE
3zsx_ligand_020
    60    63
SMALL
GAST_HUCK
****
This file was generated by PARSER (from files_GN.cpp)

@<TRIPOS>ATOM
      1 C1        -22.2203   48.2575    1.0277 C.ar        1 N44      -0.0687
      2 C2        -17.2298   47.7953   -5.5581 C.ar        1 N44      -0.0630
      3 C3        -21.6291   48.5235   -0.2200 C.ar        1 N44      -0.0685
      4 C4        -22.1408   46.9673    1.5810 C.ar        1 N44      -0.0685
      5 C5        -15.9600   47.2039   -5.6297 C.ar        1 N44      -0.0640
      6 C6        -18.2081   47.2402   -4.7198 C.ar        1 N44      -0.0483
      7 C7        -20.9619   47.4972   -0.9141 C.ar        1 N44      -0.0584
      8 C8        -21.4546   45.9474    0.8951 C.ar        1 N44      -0.0584
      9 C9        -15.6631   46.0834   -4.8362 C.ar        1 N44      -0.0493
     10 C10       -12.1326   46.5476   -1.5571 C.ar        1 N44      -0.0712
     11 C11       -10.9151   46.7446   -0.8763 C.ar        1 N44      -0.0449
     12 C12       -17.9148   46.1264   -3.8904 C.ar        1 N44       0.0564
     13 C13       -13.3132   46.3167    0.5639 C.ar        1 N44       0.0376
     14 C14       -20.8427   46.2005   -0.3559 C.ar        1 N44      -0.0211
     15 C15       -16.5914   45.5793   -3.8916 C.ar        1 N44       0.0219
     16 C16       -13.3414   46.2638   -0.8628 C.ar        1 N44      -0.0032
     17 C17       -10.9140   46.7288    0.5226 C.ar        1 N44       0.1200
     18 C18       -12.0896   46.5449    1.2299 C.ar        1 N44       0.1327
     19 C19       -11.8208   42.4666   -2.2956 C.2         1 N44      -0.1125
     20 C20       -13.0609   42.9291   -2.1027 C.2         1 N44      -0.0447
     21 C21       -18.9792   45.5517   -3.2155 C.2         1 N44       0.2021
     22 C22       -14.4655   46.2039    1.3505 C.2         1 N44       0.0515
     23 C23       -10.4430   46.6497    2.6251 C.3         1 N44       0.1864
     24 C24       -20.1554   45.1114   -1.0953 C.3         1 N44       0.0638
     25 C25       -16.1465   44.4810   -2.9724 C.3         1 N44       0.0086
     26 C26       -14.5882   46.0113   -1.6672 C.3         1 N44       0.0003
     27 C27       -13.6690   43.9645   -2.9201 C.3         1 N44      -0.0011
     28 N28       -19.0666   45.6045   -1.8906 N.am        1 N44      -0.2760
     29 N29       -14.8321   44.6276   -2.2344 N.4         1 N44       0.2715
     30 O30       -14.7339   45.0117    1.9188 O.co2       1 N44      -0.5668
     31 O31       -19.8872   45.0817   -3.8945 O.2         1 N44      -0.3884
     32 O32       -14.8729   47.2983    2.0272 O.co2       1 N44      -0.5668
     33 O33        -9.8661   46.9424    1.3363 O.3         1 N44      -0.2947
     34 O34       -11.8825   46.6542    2.5603 O.3         1 N44      -0.2890
     35 H1        -22.7144   48.9992    1.5277 H           1 N44       0.0559
     36 H2        -17.4501   48.6110   -6.1355 H           1 N44       0.0572
     37 H3        -21.6919   49.4589   -0.6263 H           1 N44       0.0599
     38 H4        -22.5845   46.7690    2.4815 H           1 N44       0.0599
     39 H5        -15.2527   47.5906   -6.2608 H           1 N44       0.0635
     40 H6        -19.1439   47.6623   -4.7194 H           1 N44       0.0651
     41 H7        -20.5558   47.7081   -1.8293 H           1 N44       0.0557
     42 H8        -21.4163   45.0132    1.3121 H           1 N44       0.0557
     43 H9        -14.7374   45.6666   -4.9262 H           1 N44       0.0570
     44 H10       -12.1359   46.6214   -2.5763 H           1 N44       0.0445
     45 H11       -10.0488   46.9146   -1.3891 H           1 N44       0.0514
     46 H12       -11.4666   41.7414   -1.7191 H           1 N44       0.0292
     47 H13       -11.2423   42.8392   -3.0062 H           1 N44       0.0292
     48 H14       -13.6149   42.5022   -1.3956 H           1 N44       0.0725
     49 H15       -10.1040   47.3920    3.3547 H           1 N44       0.0973
     50 H16       -10.0993   45.6614    2.9551 H           1 N44       0.0973
     51 H17       -20.9076   44.5936   -1.6933 H           1 N44       0.0683
     52 H18       -19.7360   44.3775   -0.4065 H           1 N44       0.0683
     53 H19       -16.1833   43.5564   -3.5499 H           1 N44       0.0995
     54 H20       -16.8786   44.3319   -2.1875 H           1 N44       0.0995
     55 H21       -14.5887   46.7552   -2.4648 H           1 N44       0.0966
     56 H22       -15.4584   46.2510   -1.0571 H           1 N44       0.0966
     57 H23       -13.9784   43.4497   -3.8281 H           1 N44       0.0998
     58 H24       -12.9347   44.7111   -3.2263 H           1 N44       0.0998
     59 H25       -18.3405   46.0376   -1.4146 H           1 N44       0.1869
     60 H26       -14.9693   44.0483   -1.4021 H           1 N44       0.2082
@<TRIPOS>BOND
     1     3     1  ar
     2     4     1  ar
     3     5     2  ar
     4     6     2  ar
     5     7     3  ar
     6     8     4  ar
     7     9     5  ar
     8    12     6  ar
     9    14     7  ar
    10    14     8  ar
    11    15     9  ar
    12    10    11  ar
    13    16    10  ar
    14    11    17  ar
    15    15    12  ar
    16    12    21   1
    17    16    13  ar
    18    13    18  ar
    19    13    22   1
    20    24    14   1
    21    25    15   1
    22    26    16   1
    23    18    17  ar
    24    17    33   1
    25    18    34   1
    26    20    19   2
    27    27    20   1
    28    21    28  am
    29    21    31   2
    30    22    30  ar
    31    22    32  ar
    32    23    33   1
    33    34    23   1
    34    28    24   1
    35    29    25   1
    36    29    26   1
    37    27    29   1
    38     1    35   1
    39     2    36   1
    40     3    37   1
    41     4    38   1
    42     5    39   1
    43     6    40   1
    44     7    41   1
    45     8    42   1
    46     9    43   1
    47    10    44   1
    48    11    45   1
    49    19    46   1
    50    19    47   1
    51    20    48   1
    52    23    49   1
    53    23    50   1
    54    24    51   1
    55    24    52   1
    56    25    53   1
    57    25    54   1
    58    26    55   1
    59    26    56   1
    60    27    57   1
    61    27    58   1
    62    28    59   1
    63    29    60   1
@<TRIPOS>SUBSTRUCTURE
     1  N44      1

