@<TRIPOS>MOLECULE
3zsx_ligand_061
    60    63
SMALL
GAST_HUCK
****
This file was generated by PARSER (from files_GN.cpp)

@<TRIPOS>ATOM
      1 C1        -18.9558   49.5394  -12.5482 C.ar        1 N44      -0.0687
      2 C2        -17.4961   44.8129   -4.7984 C.ar        1 N44      -0.0630
      3 C3        -20.0757   50.1085  -11.9150 C.ar        1 N44      -0.0685
      4 C4        -18.1615   48.6009  -11.8644 C.ar        1 N44      -0.0685
      5 C5        -16.1800   45.2134   -4.5203 C.ar        1 N44      -0.0640
      6 C6        -18.3919   45.6993   -5.4346 C.ar        1 N44      -0.0483
      7 C7        -20.3922   49.7394  -10.5939 C.ar        1 N44      -0.0584
      8 C8        -18.4855   48.2317  -10.5450 C.ar        1 N44      -0.0584
      9 C9        -15.7659   46.5144   -4.8398 C.ar        1 N44      -0.0493
     10 C10       -15.1238   53.0341   -5.3946 C.ar        1 N44      -0.0712
     11 C11       -13.9395   53.7071   -5.0643 C.ar        1 N44      -0.0449
     12 C12       -17.9783   47.0069   -5.7953 C.ar        1 N44       0.0564
     13 C13       -13.8425   51.2915   -6.5647 C.ar        1 N44       0.0376
     14 C14       -19.6023   48.8012   -9.8846 C.ar        1 N44      -0.0211
     15 C15       -16.6458   47.4363   -5.4766 C.ar        1 N44       0.0219
     16 C16       -15.1109   51.8125   -6.1314 C.ar        1 N44      -0.0032
     17 C17       -12.7138   53.1708   -5.4783 C.ar        1 N44       0.1200
     18 C18       -12.6684   51.9943   -6.2006 C.ar        1 N44       0.1327
     19 C19       -16.2595   50.5622   -1.9792 C.2         1 N44      -0.1125
     20 C20       -16.1344   50.5651   -3.3196 C.2         1 N44      -0.0447
     21 C21       -18.9031   47.8038   -6.4550 C.2         1 N44       0.2021
     22 C22       -13.6883   50.1089   -7.3290 C.2         1 N44       0.0515
     23 C23       -10.6496   52.7849   -5.9629 C.3         1 N44       0.1864
     24 C24       -20.0480   48.4012   -8.5203 C.3         1 N44       0.0638
     25 C25       -16.0684   48.7512   -5.9138 C.3         1 N44       0.0086
     26 C26       -16.4513   51.1833   -6.4390 C.3         1 N44       0.0003
     27 C27       -17.2438   50.2470   -4.2147 C.3         1 N44      -0.0011
     28 N28       -19.1334   47.6238   -7.7496 N.am        1 N44      -0.2760
     29 N29       -16.8891   49.9868   -5.6521 N.4         1 N44       0.2715
     30 O30       -14.5981   49.7721   -8.2548 O.co2       1 N44      -0.5668
     31 O31       -19.5263   48.6330   -5.7977 O.2         1 N44      -0.3884
     32 O32       -12.5341   49.4064   -7.3217 O.co2       1 N44      -0.5668
     33 O33       -11.4970   53.7089   -5.2661 O.3         1 N44      -0.2947
     34 O34       -11.3909   51.6897   -6.5240 O.3         1 N44      -0.2890
     35 H1        -18.7287   49.7948  -13.5136 H           1 N44       0.0559
     36 H2        -17.7936   43.8514   -4.5894 H           1 N44       0.0572
     37 H3        -20.6633   50.7713  -12.4150 H           1 N44       0.0599
     38 H4        -17.3564   48.1741  -12.3312 H           1 N44       0.0599
     39 H5        -15.5322   44.5629   -4.0577 H           1 N44       0.0635
     40 H6        -19.3394   45.3750   -5.6493 H           1 N44       0.0651
     41 H7        -21.2156   50.1630  -10.1525 H           1 N44       0.0557
     42 H8        -17.9055   47.5250  -10.0885 H           1 N44       0.0557
     43 H9        -14.8022   46.7823   -4.6114 H           1 N44       0.0570
     44 H10       -16.0115   53.4428   -5.0751 H           1 N44       0.0445
     45 H11       -13.9672   54.5872   -4.5318 H           1 N44       0.0514
     46 H12       -15.4680   50.8176   -1.4189 H           1 N44       0.0292
     47 H13       -17.1411   50.3439   -1.5401 H           1 N44       0.0292
     48 H14       -15.2460   50.7982   -3.7167 H           1 N44       0.0725
     49 H15        -9.8968   52.3963   -5.2697 H           1 N44       0.0973
     50 H16       -10.1321   53.3095   -6.7701 H           1 N44       0.0973
     51 H17       -20.9830   47.8382   -8.6462 H           1 N44       0.0683
     52 H18       -20.2706   49.3041   -7.9398 H           1 N44       0.0683
     53 H19       -15.9324   48.6371   -7.0011 H           1 N44       0.0995
     54 H20       -15.0804   48.9080   -5.4814 H           1 N44       0.0995
     55 H21       -16.5030   50.9377   -7.4988 H           1 N44       0.0966
     56 H22       -17.2429   51.9416   -6.3227 H           1 N44       0.0966
     57 H23       -17.9679   51.0730   -4.1847 H           1 N44       0.0998
     58 H24       -17.7569   49.3596   -3.8114 H           1 N44       0.0998
     59 H25       -18.6329   46.9179   -8.1963 H           1 N44       0.1869
     60 H26       -17.8083   49.7733   -6.0627 H           1 N44       0.2082
@<TRIPOS>BOND
     1     3     1  ar
     2     4     1  ar
     3     5     2  ar
     4     6     2  ar
     5     7     3  ar
     6     8     4  ar
     7     9     5  ar
     8    12     6  ar
     9    14     7  ar
    10    14     8  ar
    11    15     9  ar
    12    10    11  ar
    13    16    10  ar
    14    11    17  ar
    15    15    12  ar
    16    12    21   1
    17    16    13  ar
    18    13    18  ar
    19    13    22   1
    20    24    14   1
    21    25    15   1
    22    26    16   1
    23    18    17  ar
    24    17    33   1
    25    18    34   1
    26    20    19   2
    27    27    20   1
    28    21    28  am
    29    21    31   2
    30    22    30  ar
    31    22    32  ar
    32    23    33   1
    33    34    23   1
    34    28    24   1
    35    29    25   1
    36    29    26   1
    37    27    29   1
    38     1    35   1
    39     2    36   1
    40     3    37   1
    41     4    38   1
    42     5    39   1
    43     6    40   1
    44     7    41   1
    45     8    42   1
    46     9    43   1
    47    10    44   1
    48    11    45   1
    49    19    46   1
    50    19    47   1
    51    20    48   1
    52    23    49   1
    53    23    50   1
    54    24    51   1
    55    24    52   1
    56    25    53   1
    57    25    54   1
    58    26    55   1
    59    26    56   1
    60    27    57   1
    61    27    58   1
    62    28    59   1
    63    29    60   1
@<TRIPOS>SUBSTRUCTURE
     1  N44      1

