@<TRIPOS>MOLECULE
3zsx_ligand_085
    60    63
SMALL
GAST_HUCK
****
This file was generated by PARSER (from files_GN.cpp)

@<TRIPOS>ATOM
      1 C1        -15.0975   49.8245   -6.9291 C.ar        1 N44      -0.0687
      2 C2        -22.2298   50.2017   -4.0813 C.ar        1 N44      -0.0630
      3 C3        -15.7862   48.6435   -6.6037 C.ar        1 N44      -0.0685
      4 C4        -14.9692   50.8505   -5.9727 C.ar        1 N44      -0.0685
      5 C5        -23.1943   49.6600   -3.2222 C.ar        1 N44      -0.0640
      6 C6        -20.8884   49.8064   -3.9532 C.ar        1 N44      -0.0483
      7 C7        -16.3459   48.4841   -5.3242 C.ar        1 N44      -0.0584
      8 C8        -15.5221   50.6876   -4.6906 C.ar        1 N44      -0.0584
      9 C9        -22.8175   48.7174   -2.2573 C.ar        1 N44      -0.0493
     10 C10       -24.1158   46.5038    0.8272 C.ar        1 N44      -0.0712
     11 C11       -24.8769   47.2965    1.7016 C.ar        1 N44      -0.0449
     12 C12       -20.4786   48.8571   -2.9806 C.ar        1 N44       0.0564
     13 C13       -22.4778   46.0431    2.5921 C.ar        1 N44       0.0376
     14 C14       -16.2102   49.5017   -4.3470 C.ar        1 N44      -0.0211
     15 C15       -21.4709   48.2871   -2.1145 C.ar        1 N44       0.0219
     16 C16       -22.8784   45.9285    1.2251 C.ar        1 N44      -0.0032
     17 C17       -24.4143   47.4864    3.0102 C.ar        1 N44       0.1200
     18 C18       -23.2640   46.8557    3.4527 C.ar        1 N44       0.1327
     19 C19       -20.8986   45.6212   -4.5915 C.2         1 N44      -0.1125
     20 C20       -21.7477   45.5271   -3.5598 C.2         1 N44      -0.0447
     21 C21       -19.1220   48.5237   -2.9287 C.2         1 N44       0.2021
     22 C22       -21.3816   45.3390    3.1445 C.2         1 N44       0.0515
     23 C23       -24.0337   48.1311    5.0320 C.3         1 N44       0.1864
     24 C24       -16.7751   49.3024   -2.9913 C.3         1 N44       0.0638
     25 C25       -21.2025   47.3234   -0.9952 C.3         1 N44       0.0086
     26 C26       -22.0579   45.2525    0.1646 C.3         1 N44       0.0003
     27 C27       -21.3635   45.1116   -2.2219 C.3         1 N44      -0.0011
     28 N28       -18.1926   49.4742   -3.0341 N.am        1 N44      -0.2760
     29 N29       -21.9199   45.9991   -1.1398 N.4         1 N44       0.2715
     30 O30       -21.1342   44.0472    2.8194 O.co2       1 N44      -0.5668
     31 O31       -18.7916   47.3562   -2.8590 O.2         1 N44      -0.3884
     32 O32       -20.7252   45.8079    4.2273 O.co2       1 N44      -0.5668
     33 O33       -25.0079   48.2173    3.9761 O.3         1 N44      -0.2947
     34 O34       -23.0825   47.0850    4.7710 O.3         1 N44      -0.2890
     35 H1        -14.6877   49.9412   -7.8604 H           1 N44       0.0559
     36 H2        -22.5016   50.8801   -4.7942 H           1 N44       0.0572
     37 H3        -15.8792   47.8971   -7.2982 H           1 N44       0.0599
     38 H4        -14.4738   51.7116   -6.2119 H           1 N44       0.0599
     39 H5        -24.1688   49.9555   -3.3013 H           1 N44       0.0635
     40 H6        -20.2111   50.2146   -4.6077 H           1 N44       0.0651
     41 H7        -16.8435   47.6197   -5.1038 H           1 N44       0.0557
     42 H8        -15.4241   51.4459   -4.0108 H           1 N44       0.0557
     43 H9        -23.5470   48.3511   -1.6403 H           1 N44       0.0570
     44 H10       -24.4667   46.3726   -0.1233 H           1 N44       0.0445
     45 H11       -25.7541   47.7244    1.3938 H           1 N44       0.0514
     46 H12       -21.2287   45.8830   -5.4891 H           1 N44       0.0292
     47 H13       -19.9330   45.4185   -4.4839 H           1 N44       0.0292
     48 H14       -22.7127   45.6982   -3.7335 H           1 N44       0.0725
     49 H15       -24.5406   47.9325    5.9780 H           1 N44       0.0973
     50 H16       -23.5012   49.0828    5.1198 H           1 N44       0.0973
     51 H17       -16.3793   50.0375   -2.2847 H           1 N44       0.0683
     52 H18       -16.4818   48.3187   -2.6127 H           1 N44       0.0683
     53 H19       -21.5338   47.8389   -0.0880 H           1 N44       0.0995
     54 H20       -20.1416   47.1451   -0.8304 H           1 N44       0.0995
     55 H21       -22.5541   44.2936   -0.0002 H           1 N44       0.0966
     56 H22       -21.0449   45.0315    0.5155 H           1 N44       0.0966
     57 H23       -20.2779   45.0242   -2.1107 H           1 N44       0.0998
     58 H24       -21.7652   44.0991   -2.1266 H           1 N44       0.0998
     59 H25       -18.5051   50.3821   -3.1568 H           1 N44       0.1869
     60 H26       -22.8740   46.2135   -1.4345 H           1 N44       0.2082
@<TRIPOS>BOND
     1     3     1  ar
     2     4     1  ar
     3     5     2  ar
     4     6     2  ar
     5     7     3  ar
     6     8     4  ar
     7     9     5  ar
     8    12     6  ar
     9    14     7  ar
    10    14     8  ar
    11    15     9  ar
    12    10    11  ar
    13    16    10  ar
    14    11    17  ar
    15    15    12  ar
    16    12    21   1
    17    16    13  ar
    18    13    18  ar
    19    13    22   1
    20    24    14   1
    21    25    15   1
    22    26    16   1
    23    18    17  ar
    24    17    33   1
    25    18    34   1
    26    20    19   2
    27    27    20   1
    28    21    28  am
    29    21    31   2
    30    22    30  ar
    31    22    32  ar
    32    23    33   1
    33    34    23   1
    34    28    24   1
    35    29    25   1
    36    29    26   1
    37    27    29   1
    38     1    35   1
    39     2    36   1
    40     3    37   1
    41     4    38   1
    42     5    39   1
    43     6    40   1
    44     7    41   1
    45     8    42   1
    46     9    43   1
    47    10    44   1
    48    11    45   1
    49    19    46   1
    50    19    47   1
    51    20    48   1
    52    23    49   1
    53    23    50   1
    54    24    51   1
    55    24    52   1
    56    25    53   1
    57    25    54   1
    58    26    55   1
    59    26    56   1
    60    27    57   1
    61    27    58   1
    62    28    59   1
    63    29    60   1
@<TRIPOS>SUBSTRUCTURE
     1  N44      1

