@<TRIPOS>MOLECULE
3zsx_ligand_014
    60    63
SMALL
GAST_HUCK
****
This file was generated by PARSER (from files_GN.cpp)

@<TRIPOS>ATOM
      1 C1        -23.8324   43.1876   -2.0803 C.ar        1 N44      -0.0687
      2 C2        -17.3730   47.1300   -5.5199 C.ar        1 N44      -0.0630
      3 C3        -23.0725   42.8064   -0.9597 C.ar        1 N44      -0.0685
      4 C4        -23.4211   44.2761   -2.8686 C.ar        1 N44      -0.0685
      5 C5        -16.1926   46.5064   -5.9456 C.ar        1 N44      -0.0640
      6 C6        -17.9442   46.7698   -4.2924 C.ar        1 N44      -0.0483
      7 C7        -21.8907   43.4956   -0.6420 C.ar        1 N44      -0.0584
      8 C8        -22.2531   44.9853   -2.5309 C.ar        1 N44      -0.0584
      9 C9        -15.5794   45.5506   -5.1224 C.ar        1 N44      -0.0493
     10 C10       -11.7538   46.7371   -1.4695 C.ar        1 N44      -0.0712
     11 C11       -10.6878   47.1413   -0.6341 C.ar        1 N44      -0.0449
     12 C12       -17.3642   45.7787   -3.4478 C.ar        1 N44       0.0564
     13 C13       -13.2634   46.6674    0.4570 C.ar        1 N44       0.0376
     14 C14       -21.4556   44.5924   -1.4289 C.ar        1 N44      -0.0211
     15 C15       -16.1308   45.1805   -3.8663 C.ar        1 N44       0.0219
     16 C16       -13.0472   46.4852   -0.9461 C.ar        1 N44      -0.0032
     17 C17       -10.9211   47.2778    0.7411 C.ar        1 N44       0.1200
     18 C18       -12.1796   47.0529    1.2791 C.ar        1 N44       0.1327
     19 C19       -11.9128   43.9205   -3.3221 C.2         1 N44      -0.1125
     20 C20       -12.4129   43.2113   -2.2967 C.2         1 N44      -0.0447
     21 C21       -18.0390   45.4382   -2.2665 C.2         1 N44       0.2021
     22 C22       -14.5181   46.4879    1.0657 C.2         1 N44       0.0515
     23 C23       -10.7709   47.4137    2.8932 C.3         1 N44       0.1864
     24 C24       -20.2229   45.3438   -1.0779 C.3         1 N44       0.0638
     25 C25       -15.3833   44.1523   -3.0656 C.3         1 N44       0.0086
     26 C26       -14.1231   46.0631   -1.8983 C.3         1 N44       0.0003
     27 C27       -13.5506   43.5745   -1.4608 C.3         1 N44      -0.0011
     28 N28       -19.3638   45.4847   -2.2166 N.am        1 N44      -0.2760
     29 N29       -14.5642   44.6155   -1.8750 N.4         1 N44       0.2715
     30 O30       -14.8495   45.2577    1.5092 O.co2       1 N44      -0.5668
     31 O31       -17.4123   45.1359   -1.2512 O.2         1 N44      -0.3884
     32 O32       -15.0693   47.5264    1.7295 O.co2       1 N44      -0.5668
     33 O33       -10.0214   47.6200    1.6817 O.3         1 N44      -0.2947
     34 O34       -12.1743   47.2471    2.6165 O.3         1 N44      -0.2890
     35 H1        -24.6877   42.6791   -2.3172 H           1 N44       0.0559
     36 H2        -17.8184   47.8374   -6.1072 H           1 N44       0.0572
     37 H3        -23.3846   42.0275   -0.3743 H           1 N44       0.0599
     38 H4        -23.9729   44.5552   -3.6821 H           1 N44       0.0599
     39 H5        -15.7794   46.7545   -6.8465 H           1 N44       0.0635
     40 H6        -18.7983   47.2602   -4.0173 H           1 N44       0.0651
     41 H7        -21.3523   43.2006    0.1739 H           1 N44       0.0557
     42 H8        -21.9865   45.7875   -3.1047 H           1 N44       0.0557
     43 H9        -14.7089   45.1266   -5.4572 H           1 N44       0.0570
     44 H10       -11.5762   46.6004   -2.4743 H           1 N44       0.0445
     45 H11        -9.7597   47.3245   -1.0213 H           1 N44       0.0514
     46 H12       -11.1501   43.5619   -3.8418 H           1 N44       0.0292
     47 H13       -12.2703   44.8240   -3.5526 H           1 N44       0.0292
     48 H14       -11.9406   42.3574   -2.0744 H           1 N44       0.0725
     49 H15       -10.6327   48.2734    3.5530 H           1 N44       0.0973
     50 H16       -10.3978   46.5193    3.4038 H           1 N44       0.0973
     51 H17       -19.6979   44.8753   -0.2424 H           1 N44       0.0683
     52 H18       -20.5110   46.3500   -0.7644 H           1 N44       0.0683
     53 H19       -14.7464   43.5813   -3.7468 H           1 N44       0.0995
     54 H20       -16.1092   43.4152   -2.7099 H           1 N44       0.0995
     55 H21       -13.8264   46.3348   -2.9168 H           1 N44       0.0966
     56 H22       -15.0014   46.6784   -1.6826 H           1 N44       0.0966
     57 H23       -13.1464   43.8392   -0.4841 H           1 N44       0.0998
     58 H24       -14.1102   42.6463   -1.2934 H           1 N44       0.0998
     59 H25       -19.8085   45.7236   -3.0433 H           1 N44       0.1869
     60 H26       -15.2335   44.6010   -1.1029 H           1 N44       0.2082
@<TRIPOS>BOND
     1     3     1  ar
     2     4     1  ar
     3     5     2  ar
     4     6     2  ar
     5     7     3  ar
     6     8     4  ar
     7     9     5  ar
     8    12     6  ar
     9    14     7  ar
    10    14     8  ar
    11    15     9  ar
    12    10    11  ar
    13    16    10  ar
    14    11    17  ar
    15    15    12  ar
    16    12    21   1
    17    16    13  ar
    18    13    18  ar
    19    13    22   1
    20    24    14   1
    21    25    15   1
    22    26    16   1
    23    18    17  ar
    24    17    33   1
    25    18    34   1
    26    20    19   2
    27    27    20   1
    28    21    28  am
    29    21    31   2
    30    22    30  ar
    31    22    32  ar
    32    23    33   1
    33    34    23   1
    34    28    24   1
    35    29    25   1
    36    29    26   1
    37    27    29   1
    38     1    35   1
    39     2    36   1
    40     3    37   1
    41     4    38   1
    42     5    39   1
    43     6    40   1
    44     7    41   1
    45     8    42   1
    46     9    43   1
    47    10    44   1
    48    11    45   1
    49    19    46   1
    50    19    47   1
    51    20    48   1
    52    23    49   1
    53    23    50   1
    54    24    51   1
    55    24    52   1
    56    25    53   1
    57    25    54   1
    58    26    55   1
    59    26    56   1
    60    27    57   1
    61    27    58   1
    62    28    59   1
    63    29    60   1
@<TRIPOS>SUBSTRUCTURE
     1  N44      1

