@<TRIPOS>MOLECULE
3zsx_ligand_066
    60    63
SMALL
GAST_HUCK
****
This file was generated by PARSER (from files_GN.cpp)

@<TRIPOS>ATOM
      1 C1        -10.8112   42.2551   -0.4240 C.ar        1 N44      -0.0687
      2 C2        -16.3494   43.6234   -5.3265 C.ar        1 N44      -0.0630
      3 C3        -10.9371   43.4513    0.3040 C.ar        1 N44      -0.0685
      4 C4        -11.1417   42.2272   -1.7910 C.ar        1 N44      -0.0685
      5 C5        -17.5638   44.3157   -5.4303 C.ar        1 N44      -0.0640
      6 C6        -15.3744   44.0586   -4.4149 C.ar        1 N44      -0.0483
      7 C7        -11.3908   44.6201   -0.3321 C.ar        1 N44      -0.0584
      8 C8        -11.5822   43.4013   -2.4316 C.ar        1 N44      -0.0584
      9 C9        -17.7852   45.4637   -4.6492 C.ar        1 N44      -0.0493
     10 C10       -15.5774   50.1485   -1.3666 C.ar        1 N44      -0.0712
     11 C11       -14.6544   51.0023   -0.7392 C.ar        1 N44      -0.0449
     12 C12       -15.5934   45.2002   -3.6039 C.ar        1 N44       0.0564
     13 C13       -16.4253   52.0094   -2.7275 C.ar        1 N44       0.0376
     14 C14       -11.7333   44.6081   -1.7044 C.ar        1 N44      -0.0211
     15 C15       -16.8159   45.9273   -3.7215 C.ar        1 N44       0.0219
     16 C16       -16.4944   50.6351   -2.3380 C.ar        1 N44      -0.0032
     17 C17       -14.6251   52.3508   -1.1109 C.ar        1 N44       0.1200
     18 C18       -15.4755   52.8384   -2.0879 C.ar        1 N44       0.1327
     19 C19       -15.8109   47.0685   -6.6416 C.2         1 N44      -0.1125
     20 C20       -15.8183   48.1031   -5.7878 C.2         1 N44      -0.0447
     21 C21       -14.5989   45.5262   -2.7055 C.2         1 N44       0.2021
     22 C22       -17.2615   52.5866   -3.7102 C.2         1 N44       0.0515
     23 C23       -14.3232   54.4832   -1.2614 C.3         1 N44       0.1864
     24 C24       -12.1725   45.8539   -2.3941 C.3         1 N44       0.0638
     25 C25       -17.1171   47.1774   -2.9514 C.3         1 N44       0.0086
     26 C26       -17.4727   49.6428   -2.8724 C.3         1 N44       0.0003
     27 C27       -16.9943   48.5689   -5.0845 C.3         1 N44      -0.0011
     28 N28       -13.3632   45.6797   -3.1594 N.am        1 N44      -0.2760
     29 N29       -16.7953   48.5049   -3.5918 N.4         1 N44       0.2715
     30 O30       -16.7288   53.2940   -4.7304 O.co2       1 N44      -0.5668
     31 O31       -14.8495   45.5091   -1.5053 O.2         1 N44      -0.3884
     32 O32       -18.5789   52.7682   -3.4678 O.co2       1 N44      -0.5668
     33 O33       -13.8243   53.3046   -0.6075 O.3         1 N44      -0.2947
     34 O34       -15.2720   54.1545   -2.2899 O.3         1 N44      -0.2890
     35 H1        -10.4845   41.4032    0.0394 H           1 N44       0.0559
     36 H2        -16.1789   42.7954   -5.9055 H           1 N44       0.0572
     37 H3        -10.6842   43.4723    1.2953 H           1 N44       0.0599
     38 H4        -11.0471   41.3596   -2.3219 H           1 N44       0.0599
     39 H5        -18.2843   43.9894   -6.0826 H           1 N44       0.0635
     40 H6        -14.5025   43.5236   -4.3454 H           1 N44       0.0651
     41 H7        -11.4663   45.4810    0.2139 H           1 N44       0.0557
     42 H8        -11.8088   43.3639   -3.4267 H           1 N44       0.0557
     43 H9        -18.6729   45.9612   -4.7558 H           1 N44       0.0570
     44 H10       -15.5963   49.1647   -1.0833 H           1 N44       0.0445
     45 H11       -14.0240   50.6466   -0.0223 H           1 N44       0.0514
     46 H12       -14.9644   46.8064   -7.1043 H           1 N44       0.0292
     47 H13       -16.6445   46.5438   -6.8189 H           1 N44       0.0292
     48 H14       -14.9631   48.5980   -5.6520 H           1 N44       0.0725
     49 H15       -13.4851   55.0275   -1.7018 H           1 N44       0.0973
     50 H16       -14.8058   55.1282   -0.5215 H           1 N44       0.0973
     51 H17       -11.3773   46.1445   -3.0892 H           1 N44       0.0683
     52 H18       -12.3128   46.6869   -1.6937 H           1 N44       0.0683
     53 H19       -16.5713   47.1184   -2.0026 H           1 N44       0.0995
     54 H20       -18.1788   47.1587   -2.6729 H           1 N44       0.0995
     55 H21       -18.2109   50.1048   -3.5264 H           1 N44       0.0966
     56 H22       -18.0624   49.2960   -2.0146 H           1 N44       0.0966
     57 H23       -17.8931   48.0035   -5.3596 H           1 N44       0.0998
     58 H24       -17.1383   49.5959   -5.4290 H           1 N44       0.0998
     59 H25       -13.2530   45.6486   -4.1235 H           1 N44       0.1869
     60 H26       -15.7913   48.6345   -3.4330 H           1 N44       0.2082
@<TRIPOS>BOND
     1     3     1  ar
     2     4     1  ar
     3     5     2  ar
     4     6     2  ar
     5     7     3  ar
     6     8     4  ar
     7     9     5  ar
     8    12     6  ar
     9    14     7  ar
    10    14     8  ar
    11    15     9  ar
    12    10    11  ar
    13    16    10  ar
    14    11    17  ar
    15    15    12  ar
    16    12    21   1
    17    16    13  ar
    18    13    18  ar
    19    13    22   1
    20    24    14   1
    21    25    15   1
    22    26    16   1
    23    18    17  ar
    24    17    33   1
    25    18    34   1
    26    20    19   2
    27    27    20   1
    28    21    28  am
    29    21    31   2
    30    22    30  ar
    31    22    32  ar
    32    23    33   1
    33    34    23   1
    34    28    24   1
    35    29    25   1
    36    29    26   1
    37    27    29   1
    38     1    35   1
    39     2    36   1
    40     3    37   1
    41     4    38   1
    42     5    39   1
    43     6    40   1
    44     7    41   1
    45     8    42   1
    46     9    43   1
    47    10    44   1
    48    11    45   1
    49    19    46   1
    50    19    47   1
    51    20    48   1
    52    23    49   1
    53    23    50   1
    54    24    51   1
    55    24    52   1
    56    25    53   1
    57    25    54   1
    58    26    55   1
    59    26    56   1
    60    27    57   1
    61    27    58   1
    62    28    59   1
    63    29    60   1
@<TRIPOS>SUBSTRUCTURE
     1  N44      1

