@<TRIPOS>MOLECULE
3zsx_ligand_092
    60    63
SMALL
GAST_HUCK
****
This file was generated by PARSER (from files_GN.cpp)

@<TRIPOS>ATOM
      1 C1        -24.7961   44.1123   -6.8858 C.ar        1 N44      -0.0687
      2 C2        -18.0375   49.3541   -5.0573 C.ar        1 N44      -0.0630
      3 C3        -23.8100   43.6481   -5.9965 C.ar        1 N44      -0.0685
      4 C4        -24.4285   44.8984   -7.9925 C.ar        1 N44      -0.0685
      5 C5        -18.2404   49.5456   -3.6838 C.ar        1 N44      -0.0640
      6 C6        -18.4674   48.1659   -5.6674 C.ar        1 N44      -0.0483
      7 C7        -22.4567   43.9651   -6.2185 C.ar        1 N44      -0.0584
      8 C8        -23.0751   45.2129   -8.2172 C.ar        1 N44      -0.0584
      9 C9        -18.8806   48.5536   -2.9232 C.ar        1 N44      -0.0493
     10 C10       -22.5680   47.6530    0.3339 C.ar        1 N44      -0.0712
     11 C11       -22.4973   48.1732    1.6347 C.ar        1 N44      -0.0449
     12 C12       -19.1166   47.1498   -4.9202 C.ar        1 N44       0.0564
     13 C13       -21.6106   45.5133    1.0895 C.ar        1 N44       0.0376
     14 C14       -22.0719   44.7410   -7.3370 C.ar        1 N44      -0.0211
     15 C15       -19.3423   47.3510   -3.5188 C.ar        1 N44       0.0219
     16 C16       -22.1170   46.3391    0.0255 C.ar        1 N44      -0.0032
     17 C17       -21.9531   47.3775    2.6487 C.ar        1 N44       0.1200
     18 C18       -21.5149   46.0865    2.3892 C.ar        1 N44       0.1327
     19 C19       -22.5665   48.8066   -5.4506 C.2         1 N44      -0.1125
     20 C20       -22.0552   48.4377   -4.2710 C.2         1 N44      -0.0447
     21 C21       -19.5107   46.0096   -5.6104 C.2         1 N44       0.2021
     22 C22       -21.2269   44.1478    0.9419 C.2         1 N44       0.0515
     23 C23       -21.0862   46.6183    4.4597 C.3         1 N44       0.1864
     24 C24       -20.6401   45.0441   -7.5789 C.3         1 N44       0.0638
     25 C25       -20.1629   46.4341   -2.6592 C.3         1 N44       0.0086
     26 C26       -22.2735   45.9376   -1.4085 C.3         1 N44       0.0003
     27 C27       -22.3961   47.1818   -3.6141 C.3         1 N44      -0.0011
     28 N28       -20.2160   46.1158   -6.7331 N.am        1 N44      -0.2760
     29 N29       -21.5760   46.8849   -2.3759 N.4         1 N44       0.2715
     30 O30       -20.5056   43.5051    1.8896 O.co2       1 N44      -0.5668
     31 O31       -19.1723   44.9157   -5.1815 O.2         1 N44      -0.3884
     32 O32       -21.8240   43.3363    0.0409 O.co2       1 N44      -0.5668
     33 O33       -21.8339   47.7244    3.9452 O.3         1 N44      -0.2947
     34 O34       -21.0717   45.5139    3.5349 O.3         1 N44      -0.2890
     35 H1        -25.7771   43.8753   -6.7293 H           1 N44       0.0559
     36 H2        -17.5813   50.0788   -5.6146 H           1 N44       0.0572
     37 H3        -24.0755   43.0744   -5.1936 H           1 N44       0.0599
     38 H4        -25.1452   45.2361   -8.6389 H           1 N44       0.0599
     39 H5        -17.9387   50.4163   -3.2409 H           1 N44       0.0635
     40 H6        -18.2937   48.0480   -6.6709 H           1 N44       0.0651
     41 H7        -21.7525   43.6141   -5.5641 H           1 N44       0.0557
     42 H8        -22.8252   45.7840   -9.0281 H           1 N44       0.0557
     43 H9        -19.0375   48.7311   -1.9278 H           1 N44       0.0570
     44 H10       -22.9649   48.2513   -0.3972 H           1 N44       0.0445
     45 H11       -22.8372   49.1170    1.8390 H           1 N44       0.0514
     46 H12       -22.3115   49.6760   -5.8558 H           1 N44       0.0292
     47 H13       -23.2030   48.2208   -5.9369 H           1 N44       0.0292
     48 H14       -21.4375   49.0714   -3.8121 H           1 N44       0.0725
     49 H15       -21.5278   46.2897    5.4001 H           1 N44       0.0973
     50 H16       -20.0580   46.9366    4.6498 H           1 N44       0.0973
     51 H17       -20.4805   45.3593   -8.6123 H           1 N44       0.0683
     52 H18       -20.0419   44.1395   -7.4383 H           1 N44       0.0683
     53 H19       -19.6368   46.3144   -1.7045 H           1 N44       0.0995
     54 H20       -20.2025   45.4381   -3.0974 H           1 N44       0.0995
     55 H21       -23.3549   45.9101   -1.5746 H           1 N44       0.0966
     56 H22       -21.9399   44.9157   -1.5829 H           1 N44       0.0966
     57 H23       -22.3008   46.3513   -4.3185 H           1 N44       0.0998
     58 H24       -23.4561   47.2808   -3.3678 H           1 N44       0.0998
     59 H25       -20.4793   47.0101   -7.0048 H           1 N44       0.1869
     60 H26       -21.4887   47.7769   -1.8874 H           1 N44       0.2082
@<TRIPOS>BOND
     1     3     1  ar
     2     4     1  ar
     3     5     2  ar
     4     6     2  ar
     5     7     3  ar
     6     8     4  ar
     7     9     5  ar
     8    12     6  ar
     9    14     7  ar
    10    14     8  ar
    11    15     9  ar
    12    10    11  ar
    13    16    10  ar
    14    11    17  ar
    15    15    12  ar
    16    12    21   1
    17    16    13  ar
    18    13    18  ar
    19    13    22   1
    20    24    14   1
    21    25    15   1
    22    26    16   1
    23    18    17  ar
    24    17    33   1
    25    18    34   1
    26    20    19   2
    27    27    20   1
    28    21    28  am
    29    21    31   2
    30    22    30  ar
    31    22    32  ar
    32    23    33   1
    33    34    23   1
    34    28    24   1
    35    29    25   1
    36    29    26   1
    37    27    29   1
    38     1    35   1
    39     2    36   1
    40     3    37   1
    41     4    38   1
    42     5    39   1
    43     6    40   1
    44     7    41   1
    45     8    42   1
    46     9    43   1
    47    10    44   1
    48    11    45   1
    49    19    46   1
    50    19    47   1
    51    20    48   1
    52    23    49   1
    53    23    50   1
    54    24    51   1
    55    24    52   1
    56    25    53   1
    57    25    54   1
    58    26    55   1
    59    26    56   1
    60    27    57   1
    61    27    58   1
    62    28    59   1
    63    29    60   1
@<TRIPOS>SUBSTRUCTURE
     1  N44      1

