@<TRIPOS>MOLECULE
3zsx_ligand_009
    60    63
SMALL
GAST_HUCK
****
This file was generated by PARSER (from files_GN.cpp)

@<TRIPOS>ATOM
      1 C1        -23.1713   43.6888   -2.3633 C.ar        1 N44      -0.0687
      2 C2        -17.9895   47.8623   -7.3728 C.ar        1 N44      -0.0630
      3 C3        -23.1528   44.7754   -3.2572 C.ar        1 N44      -0.0685
      4 C4        -22.1782   43.5730   -1.3729 C.ar        1 N44      -0.0685
      5 C5        -16.6087   47.6306   -7.3758 C.ar        1 N44      -0.0640
      6 C6        -18.7794   47.3586   -6.3265 C.ar        1 N44      -0.0483
      7 C7        -22.1306   45.7423   -3.1650 C.ar        1 N44      -0.0584
      8 C8        -21.1586   44.5381   -1.2890 C.ar        1 N44      -0.0584
      9 C9        -16.0185   46.8909   -6.3377 C.ar        1 N44      -0.0493
     10 C10       -12.8425   45.5351   -2.6756 C.ar        1 N44      -0.0712
     11 C11       -11.4415   45.5694   -2.5685 C.ar        1 N44      -0.0449
     12 C12       -18.2025   46.6025   -5.2768 C.ar        1 N44       0.0564
     13 C13       -13.0790   46.0301   -0.2763 C.ar        1 N44       0.0376
     14 C14       -21.1216   45.6393   -2.1791 C.ar        1 N44      -0.0211
     15 C15       -16.7892   46.3697   -5.2669 C.ar        1 N44       0.0219
     16 C16       -13.6828   45.7701   -1.5526 C.ar        1 N44      -0.0032
     17 C17       -10.8720   45.8345   -1.3211 C.ar        1 N44       0.1200
     18 C18       -11.6620   46.0526   -0.2052 C.ar        1 N44       0.1327
     19 C19       -16.1951   50.0006   -1.9728 C.2         1 N44      -0.1125
     20 C20       -15.9604   48.6798   -1.8047 C.2         1 N44      -0.0447
     21 C21       -19.0424   46.1754   -4.2629 C.2         1 N44       0.2021
     22 C22       -13.7949   46.2332    0.9356 C.2         1 N44       0.0515
     23 C23        -9.5921   45.8241    0.4010 C.3         1 N44       0.1864
     24 C24       -20.0627   46.6804   -2.0772 C.3         1 N44       0.0638
     25 C25       -16.0648   45.6836   -4.1426 C.3         1 N44       0.0086
     26 C26       -15.1525   45.6877   -1.8120 C.3         1 N44       0.0003
     27 C27       -16.5663   47.6353   -2.6115 C.3         1 N44      -0.0011
     28 N28       -19.4383   47.0240   -3.3165 N.am        1 N44      -0.2760
     29 N29       -15.6010   46.5435   -2.9894 N.4         1 N44       0.2715
     30 O30       -13.4540   47.2319    1.7836 O.co2       1 N44      -0.5668
     31 O31       -19.3941   45.0020   -4.2465 O.2         1 N44      -0.3884
     32 O32       -14.6842   45.3286    1.4065 O.co2       1 N44      -0.5668
     33 O33        -9.5574   45.8629   -1.0325 O.3         1 N44      -0.2947
     34 O34       -10.8872   46.2234    0.8870 O.3         1 N44      -0.2890
     35 H1        -23.9168   42.9910   -2.4207 H           1 N44       0.0559
     36 H2        -18.4185   48.4043   -8.1241 H           1 N44       0.0572
     37 H3        -23.8822   44.8603   -3.9706 H           1 N44       0.0599
     38 H4        -22.1956   42.7874   -0.7189 H           1 N44       0.0599
     39 H5        -16.0330   47.9985   -8.1352 H           1 N44       0.0635
     40 H6        -19.7878   47.5433   -6.3454 H           1 N44       0.0651
     41 H7        -22.1326   46.5238   -3.8253 H           1 N44       0.0557
     42 H8        -20.4380   44.4311   -0.5715 H           1 N44       0.0557
     43 H9        -15.0045   46.7570   -6.3566 H           1 N44       0.0570
     44 H10       -13.2438   45.3234   -3.5930 H           1 N44       0.0445
     45 H11       -10.8546   45.3905   -3.3847 H           1 N44       0.0514
     46 H12       -15.7698   50.6611   -1.3631 H           1 N44       0.0292
     47 H13       -16.7626   50.3320   -2.7257 H           1 N44       0.0292
     48 H14       -15.3946   48.4153   -1.0291 H           1 N44       0.0725
     49 H15        -8.8285   46.4883    0.8042 H           1 N44       0.0973
     50 H16        -9.3730   44.8081    0.7412 H           1 N44       0.0973
     51 H17       -19.2745   46.3680   -1.3812 H           1 N44       0.0683
     52 H18       -20.5096   47.5878   -1.6602 H           1 N44       0.0683
     53 H19       -15.1828   45.1903   -4.5795 H           1 N44       0.0995
     54 H20       -16.6721   44.8669   -3.7546 H           1 N44       0.0995
     55 H21       -15.7324   45.9444   -0.9271 H           1 N44       0.0966
     56 H22       -15.3594   44.6218   -1.9689 H           1 N44       0.0966
     57 H23       -16.9722   48.0942   -3.5180 H           1 N44       0.0998
     58 H24       -17.4068   47.1970   -2.0664 H           1 N44       0.0998
     59 H25       -19.2068   47.9618   -3.4316 H           1 N44       0.1869
     60 H26       -14.7782   47.0445   -3.3331 H           1 N44       0.2082
@<TRIPOS>BOND
     1     3     1  ar
     2     4     1  ar
     3     5     2  ar
     4     6     2  ar
     5     7     3  ar
     6     8     4  ar
     7     9     5  ar
     8    12     6  ar
     9    14     7  ar
    10    14     8  ar
    11    15     9  ar
    12    10    11  ar
    13    16    10  ar
    14    11    17  ar
    15    15    12  ar
    16    12    21   1
    17    16    13  ar
    18    13    18  ar
    19    13    22   1
    20    24    14   1
    21    25    15   1
    22    26    16   1
    23    18    17  ar
    24    17    33   1
    25    18    34   1
    26    20    19   2
    27    27    20   1
    28    21    28  am
    29    21    31   2
    30    22    30  ar
    31    22    32  ar
    32    23    33   1
    33    34    23   1
    34    28    24   1
    35    29    25   1
    36    29    26   1
    37    27    29   1
    38     1    35   1
    39     2    36   1
    40     3    37   1
    41     4    38   1
    42     5    39   1
    43     6    40   1
    44     7    41   1
    45     8    42   1
    46     9    43   1
    47    10    44   1
    48    11    45   1
    49    19    46   1
    50    19    47   1
    51    20    48   1
    52    23    49   1
    53    23    50   1
    54    24    51   1
    55    24    52   1
    56    25    53   1
    57    25    54   1
    58    26    55   1
    59    26    56   1
    60    27    57   1
    61    27    58   1
    62    28    59   1
    63    29    60   1
@<TRIPOS>SUBSTRUCTURE
     1  N44      1

