@<TRIPOS>MOLECULE
3zsx_ligand_094
    60    63
SMALL
GAST_HUCK
****
This file was generated by PARSER (from files_GN.cpp)

@<TRIPOS>ATOM
      1 C1        -15.8130   44.1041   -5.2268 C.ar        1 N44      -0.0687
      2 C2        -20.5164   51.8659   -5.2174 C.ar        1 N44      -0.0630
      3 C3        -15.0197   44.8772   -4.3604 C.ar        1 N44      -0.0685
      4 C4        -17.1946   44.3505   -5.3162 C.ar        1 N44      -0.0685
      5 C5        -20.0244   52.0128   -6.5221 C.ar        1 N44      -0.0640
      6 C6        -19.8412   51.0408   -4.3038 C.ar        1 N44      -0.0483
      7 C7        -15.5993   45.9125   -3.6031 C.ar        1 N44      -0.0584
      8 C8        -17.7778   45.3740   -4.5469 C.ar        1 N44      -0.0584
      9 C9        -18.8579   51.3345   -6.9116 C.ar        1 N44      -0.0493
     10 C10       -14.5067   52.1952   -9.3076 C.ar        1 N44      -0.0712
     11 C11       -13.8210   53.2478   -9.9425 C.ar        1 N44      -0.0449
     12 C12       -18.6713   50.3405   -4.6878 C.ar        1 N44       0.0564
     13 C13       -12.5487   51.7234   -7.9069 C.ar        1 N44       0.0376
     14 C14       -16.9869   46.1786   -3.6914 C.ar        1 N44      -0.0211
     15 C15       -18.1605   50.4878   -6.0141 C.ar        1 N44       0.0219
     16 C16       -13.8894   51.4084   -8.2971 C.ar        1 N44      -0.0032
     17 C17       -12.5141   53.5478   -9.5341 C.ar        1 N44       0.1200
     18 C18       -11.9009   52.8168   -8.5286 C.ar        1 N44       0.1327
     19 C19       -15.7852   52.6636   -3.4615 C.2         1 N44      -0.1125
     20 C20       -16.0023   52.3412   -4.7419 C.2         1 N44      -0.0447
     21 C21       -18.0575   49.5543   -3.7303 C.2         1 N44       0.2021
     22 C22       -11.8485   51.0092   -6.9112 C.2         1 N44       0.0515
     23 C23       -10.4812   54.2534   -9.3346 C.3         1 N44       0.1864
     24 C24       -17.6212   47.2696   -2.9074 C.3         1 N44       0.0638
     25 C25       -16.8943   49.8578   -6.5123 C.3         1 N44       0.0086
     26 C26       -14.7181   50.3249   -7.6715 C.3         1 N44       0.0003
     27 C27       -15.1828   51.3860   -5.4657 C.3         1 N44      -0.0011
     28 N28       -18.1898   48.2373   -3.7982 N.am        1 N44      -0.2760
     29 N29       -15.7839   50.8567   -6.7464 N.4         1 N44       0.2715
     30 O30       -11.1121   51.6597   -5.9818 O.co2       1 N44      -0.5668
     31 O31       -17.4979   50.1038   -2.7906 O.2         1 N44      -0.3884
     32 O32       -11.5965   49.6936   -7.0911 O.co2       1 N44      -0.5668
     33 O33       -11.7181   54.5213  -10.0176 O.3         1 N44      -0.2947
     34 O34       -10.6561   53.2823   -8.2896 O.3         1 N44      -0.2890
     35 H1        -15.3881   43.3574   -5.7809 H           1 N44       0.0559
     36 H2        -21.3633   52.3629   -4.9326 H           1 N44       0.0572
     37 H3        -14.0203   44.6834   -4.2726 H           1 N44       0.0599
     38 H4        -17.7772   43.7811   -5.9328 H           1 N44       0.0599
     39 H5        -20.5092   52.6215   -7.1854 H           1 N44       0.0635
     40 H6        -20.2195   50.9522   -3.3558 H           1 N44       0.0651
     41 H7        -15.0022   46.4688   -2.9864 H           1 N44       0.0557
     42 H8        -18.7868   45.5338   -4.6202 H           1 N44       0.0557
     43 H9        -18.5135   51.4698   -7.8645 H           1 N44       0.0570
     44 H10       -15.4697   52.0010   -9.5971 H           1 N44       0.0445
     45 H11       -14.2696   53.7887  -10.6857 H           1 N44       0.0514
     46 H12       -16.3576   53.3377   -3.0119 H           1 N44       0.0292
     47 H13       -15.0913   52.2016   -2.9239 H           1 N44       0.0292
     48 H14       -16.7124   52.8314   -5.2351 H           1 N44       0.0725
     49 H15       -10.0954   55.1792   -8.9051 H           1 N44       0.0973
     50 H16        -9.7469   53.8751  -10.0498 H           1 N44       0.0973
     51 H17       -16.9011   47.7269   -2.2230 H           1 N44       0.0683
     52 H18       -18.4233   46.8497   -2.2971 H           1 N44       0.0683
     53 H19       -17.1573   49.3511   -7.4465 H           1 N44       0.0995
     54 H20       -16.5363   49.0695   -5.8466 H           1 N44       0.0995
     55 H21       -14.1079   49.6054   -7.1240 H           1 N44       0.0966
     56 H22       -15.1623   49.7613   -8.4973 H           1 N44       0.0966
     57 H23       -14.9299   50.5418   -4.8169 H           1 N44       0.0998
     58 H24       -14.2531   51.9213   -5.6651 H           1 N44       0.0998
     59 H25       -18.7504   47.8911   -4.5125 H           1 N44       0.1869
     60 H26       -16.2101   51.6506   -7.2294 H           1 N44       0.2082
@<TRIPOS>BOND
     1     3     1  ar
     2     4     1  ar
     3     5     2  ar
     4     6     2  ar
     5     7     3  ar
     6     8     4  ar
     7     9     5  ar
     8    12     6  ar
     9    14     7  ar
    10    14     8  ar
    11    15     9  ar
    12    10    11  ar
    13    16    10  ar
    14    11    17  ar
    15    15    12  ar
    16    12    21   1
    17    16    13  ar
    18    13    18  ar
    19    13    22   1
    20    24    14   1
    21    25    15   1
    22    26    16   1
    23    18    17  ar
    24    17    33   1
    25    18    34   1
    26    20    19   2
    27    27    20   1
    28    21    28  am
    29    21    31   2
    30    22    30  ar
    31    22    32  ar
    32    23    33   1
    33    34    23   1
    34    28    24   1
    35    29    25   1
    36    29    26   1
    37    27    29   1
    38     1    35   1
    39     2    36   1
    40     3    37   1
    41     4    38   1
    42     5    39   1
    43     6    40   1
    44     7    41   1
    45     8    42   1
    46     9    43   1
    47    10    44   1
    48    11    45   1
    49    19    46   1
    50    19    47   1
    51    20    48   1
    52    23    49   1
    53    23    50   1
    54    24    51   1
    55    24    52   1
    56    25    53   1
    57    25    54   1
    58    26    55   1
    59    26    56   1
    60    27    57   1
    61    27    58   1
    62    28    59   1
    63    29    60   1
@<TRIPOS>SUBSTRUCTURE
     1  N44      1

