@<TRIPOS>MOLECULE
3zsx_ligand_021
    60    63
SMALL
GAST_HUCK
****
This file was generated by PARSER (from files_GN.cpp)

@<TRIPOS>ATOM
      1 C1        -10.9768   49.7677    2.5174 C.ar        1 N44      -0.0687
      2 C2        -15.6160   45.2318   -3.5759 C.ar        1 N44      -0.0630
      3 C3        -11.8953   50.7332    2.0666 C.ar        1 N44      -0.0685
      4 C4        -11.3186   48.4047    2.4755 C.ar        1 N44      -0.0685
      5 C5        -14.6229   44.2915   -3.8739 C.ar        1 N44      -0.0640
      6 C6        -15.5903   45.9022   -2.3428 C.ar        1 N44      -0.0483
      7 C7        -13.1438   50.3366    1.5537 C.ar        1 N44      -0.0584
      8 C8        -12.5678   48.0084    1.9668 C.ar        1 N44      -0.0584
      9 C9        -13.5976   44.0369   -2.9431 C.ar        1 N44      -0.0493
     10 C10       -10.5783   41.9120   -2.1981 C.ar        1 N44      -0.0712
     11 C11       -10.3870   40.5587   -1.8741 C.ar        1 N44      -0.0449
     12 C12       -14.5673   45.6520   -1.3918 C.ar        1 N44       0.0564
     13 C13        -8.5953   42.5618   -0.8979 C.ar        1 N44       0.0376
     14 C14       -13.4916   48.9669    1.4855 C.ar        1 N44      -0.0211
     15 C15       -13.5329   44.7069   -1.6954 C.ar        1 N44       0.0219
     16 C16        -9.7382   42.9424   -1.6878 C.ar        1 N44      -0.0032
     17 C17        -9.3375   40.2183   -1.0200 C.ar        1 N44       0.1200
     18 C18        -8.4593   41.1848   -0.5507 C.ar        1 N44       0.1327
     19 C19        -8.6425   47.2860    0.6859 C.2         1 N44      -0.1125
     20 C20        -9.4568   46.7252   -0.2200 C.2         1 N44      -0.0447
     21 C21       -14.6627   46.3250   -0.1863 C.2         1 N44       0.2021
     22 C22        -7.5654   43.4506   -0.4670 C.2         1 N44       0.0515
     23 C23        -7.8860   39.2151    0.2206 C.3         1 N44       0.1864
     24 C24       -14.8016   48.5206    0.9417 C.3         1 N44       0.0638
     25 C25       -12.3925   44.3660   -0.7759 C.3         1 N44       0.0086
     26 C26       -10.1520   44.3535   -2.0316 C.3         1 N44       0.0003
     27 C27       -10.3952   45.6603    0.1061 C.3         1 N44      -0.0011
     28 N28       -14.6193   47.6525   -0.1848 N.am        1 N44      -0.2760
     29 N29       -11.0941   45.0842   -1.0945 N.4         1 N44       0.2715
     30 O30        -6.6263   43.0765    0.4399 O.co2       1 N44      -0.5668
     31 O31       -14.8918   45.6776    0.8273 O.2         1 N44      -0.3884
     32 O32        -7.3798   44.6827   -0.9956 O.co2       1 N44      -0.5668
     33 O33        -9.0111   38.9706   -0.6317 O.3         1 N44      -0.2947
     34 O34        -7.4844   40.6002    0.1813 O.3         1 N44      -0.2890
     35 H1        -10.0668   50.0541    2.8778 H           1 N44       0.0559
     36 H2        -16.3700   45.4120   -4.2427 H           1 N44       0.0572
     37 H3        -11.6524   51.7250    2.1098 H           1 N44       0.0599
     38 H4        -10.6604   47.7018    2.8131 H           1 N44       0.0599
     39 H5        -14.6494   43.7887   -4.7632 H           1 N44       0.0635
     40 H6        -16.3484   46.5624   -2.1392 H           1 N44       0.0651
     41 H7        -13.7962   51.0529    1.2300 H           1 N44       0.0557
     42 H8        -12.8002   47.0124    1.9468 H           1 N44       0.0557
     43 H9        -12.9032   43.3244   -3.1887 H           1 N44       0.0570
     44 H10       -11.3642   42.1367   -2.8112 H           1 N44       0.0445
     45 H11       -11.0073   39.8401   -2.2582 H           1 N44       0.0514
     46 H12        -8.0330   48.0270    0.4192 H           1 N44       0.0292
     47 H13        -8.6190   46.9683    1.6260 H           1 N44       0.0292
     48 H14        -9.4261   47.0763   -1.1489 H           1 N44       0.0725
     49 H15        -7.0527   38.5817   -0.0910 H           1 N44       0.0973
     50 H16        -8.1443   38.9419    1.2467 H           1 N44       0.0973
     51 H17       -15.3964   49.3691    0.6001 H           1 N44       0.0683
     52 H18       -15.3739   48.0337    1.7350 H           1 N44       0.0683
     53 H19       -12.2513   43.2834   -0.7717 H           1 N44       0.0995
     54 H20       -12.7003   44.5809    0.2460 H           1 N44       0.0995
     55 H21       -10.6149   44.3663   -3.0210 H           1 N44       0.0966
     56 H22        -9.2589   44.9590   -2.1863 H           1 N44       0.0966
     57 H23       -11.1152   46.1149    0.7867 H           1 N44       0.0998
     58 H24        -9.8914   44.8643    0.6619 H           1 N44       0.0998
     59 H25       -14.4378   48.0858   -1.0419 H           1 N44       0.1869
     60 H26       -11.3925   45.9094   -1.6200 H           1 N44       0.2082
@<TRIPOS>BOND
     1     3     1  ar
     2     4     1  ar
     3     5     2  ar
     4     6     2  ar
     5     7     3  ar
     6     8     4  ar
     7     9     5  ar
     8    12     6  ar
     9    14     7  ar
    10    14     8  ar
    11    15     9  ar
    12    10    11  ar
    13    16    10  ar
    14    11    17  ar
    15    15    12  ar
    16    12    21   1
    17    16    13  ar
    18    13    18  ar
    19    13    22   1
    20    24    14   1
    21    25    15   1
    22    26    16   1
    23    18    17  ar
    24    17    33   1
    25    18    34   1
    26    20    19   2
    27    27    20   1
    28    21    28  am
    29    21    31   2
    30    22    30  ar
    31    22    32  ar
    32    23    33   1
    33    34    23   1
    34    28    24   1
    35    29    25   1
    36    29    26   1
    37    27    29   1
    38     1    35   1
    39     2    36   1
    40     3    37   1
    41     4    38   1
    42     5    39   1
    43     6    40   1
    44     7    41   1
    45     8    42   1
    46     9    43   1
    47    10    44   1
    48    11    45   1
    49    19    46   1
    50    19    47   1
    51    20    48   1
    52    23    49   1
    53    23    50   1
    54    24    51   1
    55    24    52   1
    56    25    53   1
    57    25    54   1
    58    26    55   1
    59    26    56   1
    60    27    57   1
    61    27    58   1
    62    28    59   1
    63    29    60   1
@<TRIPOS>SUBSTRUCTURE
     1  N44      1

