@<TRIPOS>MOLECULE
3zsx_ligand_070
    60    63
SMALL
GAST_HUCK
****
This file was generated by PARSER (from files_GN.cpp)

@<TRIPOS>ATOM
      1 C1        -19.7728   46.3429   -2.0020 C.ar        1 N44      -0.0687
      2 C2        -11.7658   47.4109    2.2156 C.ar        1 N44      -0.0630
      3 C3        -19.1261   45.2937   -1.3273 C.ar        1 N44      -0.0685
      4 C4        -19.0186   47.2795   -2.7289 C.ar        1 N44      -0.0685
      5 C5        -12.1863   48.6867    2.6169 C.ar        1 N44      -0.0640
      6 C6        -12.2533   46.8604    1.0216 C.ar        1 N44      -0.0483
      7 C7        -17.7237   45.1730   -1.3904 C.ar        1 N44      -0.0584
      8 C8        -17.6181   47.1665   -2.7838 C.ar        1 N44      -0.0584
      9 C9        -13.0728   49.4196    1.8086 C.ar        1 N44      -0.0493
     10 C10       -17.2966   52.6428    0.6107 C.ar        1 N44      -0.0712
     11 C11       -17.9775   53.6354    1.3388 C.ar        1 N44      -0.0449
     12 C12       -13.1346   47.5972    0.1901 C.ar        1 N44       0.0564
     13 C13       -16.1071   54.3552   -0.6853 C.ar        1 N44       0.0376
     14 C14       -16.9508   46.1044   -2.1288 C.ar        1 N44      -0.0211
     15 C15       -13.5084   48.9295    0.5548 C.ar        1 N44       0.0219
     16 C16       -16.3518   52.9755   -0.3998 C.ar        1 N44      -0.0032
     17 C17       -17.6822   54.9806    1.0809 C.ar        1 N44       0.1200
     18 C18       -16.7696   55.3298    0.0973 C.ar        1 N44       0.1327
     19 C19       -10.9635   51.6988    0.4025 C.2         1 N44      -0.1125
     20 C20       -12.0547   51.6857   -0.3741 C.2         1 N44      -0.0447
     21 C21       -13.5900   46.9671   -0.9578 C.2         1 N44       0.2021
     22 C22       -15.2321   54.8019   -1.7028 C.2         1 N44       0.0515
     23 C23       -17.5872   57.1429    0.9872 C.3         1 N44       0.1864
     24 C24       -15.4716   46.0027   -2.1939 C.3         1 N44       0.0638
     25 C25       -14.3215   49.7887   -0.3694 C.3         1 N44       0.0086
     26 C26       -15.6061   51.8356   -1.0300 C.3         1 N44       0.0003
     27 C27       -13.3625   52.1599    0.0676 C.3         1 N44      -0.0011
     28 N28       -14.8842   46.6886   -1.0900 N.am        1 N44      -0.2760
     29 N29       -14.5712   51.2518   -0.0879 N.4         1 N44       0.2715
     30 O30       -14.3739   55.8235   -1.4844 O.co2       1 N44      -0.5668
     31 O31       -12.7697   46.6218   -1.8023 O.2         1 N44      -0.3884
     32 O32       -15.3891   54.3883   -2.9803 O.co2       1 N44      -0.5668
     33 O33       -18.2107   56.0546    1.6958 O.3         1 N44      -0.2947
     34 O34       -16.6442   56.6695    0.0110 O.3         1 N44      -0.2890
     35 H1        -20.7925   46.4255   -1.9656 H           1 N44       0.0559
     36 H2        -11.1240   46.8732    2.7993 H           1 N44       0.0572
     37 H3        -19.6766   44.6146   -0.7936 H           1 N44       0.0599
     38 H4        -19.4878   48.0445   -3.2205 H           1 N44       0.0599
     39 H5        -11.8456   49.0790    3.4967 H           1 N44       0.0635
     40 H6        -11.9639   45.9071    0.7732 H           1 N44       0.0651
     41 H7        -17.2701   44.4031   -0.8910 H           1 N44       0.0557
     42 H8        -17.0853   47.8641   -3.3104 H           1 N44       0.0557
     43 H9        -13.3817   50.3249    2.1489 H           1 N44       0.0570
     44 H10       -17.4971   51.6622    0.8298 H           1 N44       0.0445
     45 H11       -18.6580   53.3834    2.0573 H           1 N44       0.0514
     46 H12       -10.0908   51.3869    0.0369 H           1 N44       0.0292
     47 H13       -11.0013   52.0453    1.3361 H           1 N44       0.0292
     48 H14       -11.9636   51.3976   -1.3237 H           1 N44       0.0725
     49 H15       -17.0731   57.7931    1.6997 H           1 N44       0.0973
     50 H16       -18.3557   57.7319    0.4804 H           1 N44       0.0973
     51 H17       -15.1090   46.4323   -3.1341 H           1 N44       0.0683
     52 H18       -15.1690   44.9529   -2.1772 H           1 N44       0.0683
     53 H19       -15.2927   49.2947   -0.4123 H           1 N44       0.0995
     54 H20       -13.8679   49.7271   -1.3599 H           1 N44       0.0995
     55 H21       -15.1163   52.1132   -1.9623 H           1 N44       0.0966
     56 H22       -16.3584   51.0943   -1.3221 H           1 N44       0.0966
     57 H23       -13.4931   53.0960   -0.4790 H           1 N44       0.0998
     58 H24       -13.3310   52.4526    1.1214 H           1 N44       0.0998
     59 H25       -15.4836   46.9558   -0.3737 H           1 N44       0.1869
     60 H26       -15.0249   51.2528    0.8324 H           1 N44       0.2082
@<TRIPOS>BOND
     1     3     1  ar
     2     4     1  ar
     3     5     2  ar
     4     6     2  ar
     5     7     3  ar
     6     8     4  ar
     7     9     5  ar
     8    12     6  ar
     9    14     7  ar
    10    14     8  ar
    11    15     9  ar
    12    10    11  ar
    13    16    10  ar
    14    11    17  ar
    15    15    12  ar
    16    12    21   1
    17    16    13  ar
    18    13    18  ar
    19    13    22   1
    20    24    14   1
    21    25    15   1
    22    26    16   1
    23    18    17  ar
    24    17    33   1
    25    18    34   1
    26    20    19   2
    27    27    20   1
    28    21    28  am
    29    21    31   2
    30    22    30  ar
    31    22    32  ar
    32    23    33   1
    33    34    23   1
    34    28    24   1
    35    29    25   1
    36    29    26   1
    37    27    29   1
    38     1    35   1
    39     2    36   1
    40     3    37   1
    41     4    38   1
    42     5    39   1
    43     6    40   1
    44     7    41   1
    45     8    42   1
    46     9    43   1
    47    10    44   1
    48    11    45   1
    49    19    46   1
    50    19    47   1
    51    20    48   1
    52    23    49   1
    53    23    50   1
    54    24    51   1
    55    24    52   1
    56    25    53   1
    57    25    54   1
    58    26    55   1
    59    26    56   1
    60    27    57   1
    61    27    58   1
    62    28    59   1
    63    29    60   1
@<TRIPOS>SUBSTRUCTURE
     1  N44      1

