@<TRIPOS>MOLECULE
3zsx_ligand_017
    60    63
SMALL
GAST_HUCK
****
This file was generated by PARSER (from files_GN.cpp)

@<TRIPOS>ATOM
      1 C1        -14.3125   52.2089   -0.7958 C.ar        1 N44      -0.0687
      2 C2        -11.3118   44.0375   -1.2703 C.ar        1 N44      -0.0630
      3 C3        -14.9308   51.0715   -1.3436 C.ar        1 N44      -0.0685
      4 C4        -13.6042   52.1082    0.4150 C.ar        1 N44      -0.0685
      5 C5        -12.0943   43.4409   -2.2662 C.ar        1 N44      -0.0640
      6 C6        -11.8931   44.9629   -0.3893 C.ar        1 N44      -0.0483
      7 C7        -14.8570   49.8392   -0.6698 C.ar        1 N44      -0.0584
      8 C8        -13.5209   50.8728    1.0834 C.ar        1 N44      -0.0584
      9 C9        -13.4435   43.8029   -2.4016 C.ar        1 N44      -0.0493
     10 C10       -16.8020   48.7280   -4.2036 C.ar        1 N44      -0.0712
     11 C11       -16.9875   49.6734   -5.2277 C.ar        1 N44      -0.0449
     12 C12       -13.2584   45.3209   -0.5130 C.ar        1 N44       0.0564
     13 C13       -18.5310   47.2814   -5.1701 C.ar        1 N44       0.0376
     14 C14       -14.1558   49.7255    0.5545 C.ar        1 N44      -0.0211
     15 C15       -14.0454   44.7952   -1.5856 C.ar        1 N44       0.0219
     16 C16       -17.5367   47.5129   -4.1639 C.ar        1 N44      -0.0032
     17 C17       -17.9200   49.3997   -6.2338 C.ar        1 N44       0.1200
     18 C18       -18.6834   48.2440   -6.1986 C.ar        1 N44       0.1327
     19 C19       -15.8200   43.2704   -5.7122 C.2         1 N44      -0.1125
     20 C20       -16.0984   44.0340   -4.6492 C.2         1 N44      -0.0447
     21 C21       -13.7823   46.1320    0.4709 C.2         1 N44       0.2021
     22 C22       -19.3731   46.1432   -5.2135 C.2         1 N44       0.0515
     23 C23       -19.2424   49.4251   -7.9423 C.3         1 N44       0.1864
     24 C24       -14.1235   48.4241    1.2658 C.3         1 N44       0.0638
     25 C25       -15.4798   45.1803   -1.8473 C.3         1 N44       0.0086
     26 C26       -17.1969   46.5602   -3.0540 C.3         1 N44       0.0003
     27 C27       -15.4618   45.3218   -4.4041 C.3         1 N44      -0.0011
     28 N28       -13.5258   47.4294    0.4319 N.am        1 N44      -0.2760
     29 N29       -15.7900   45.9951   -3.0934 N.4         1 N44       0.2715
     30 O30       -18.8678   44.8933   -5.1567 O.co2       1 N44      -0.5668
     31 O31       -14.5289   45.6310    1.3051 O.2         1 N44      -0.3884
     32 O32       -20.6576   46.2368   -5.6269 O.co2       1 N44      -0.5668
     33 O33       -18.1772   50.1585   -7.3136 O.3         1 N44      -0.2947
     34 O34       -19.4945   48.1755   -7.2773 O.3         1 N44      -0.2890
     35 H1        -14.3791   53.1089   -1.2776 H           1 N44       0.0559
     36 H2        -10.3305   43.7723   -1.1647 H           1 N44       0.0572
     37 H3        -15.4366   51.1425   -2.2292 H           1 N44       0.0599
     38 H4        -13.1537   52.9357    0.8120 H           1 N44       0.0599
     39 H5        -11.6875   42.7393   -2.8897 H           1 N44       0.0635
     40 H6        -11.3126   45.3494    0.3609 H           1 N44       0.0651
     41 H7        -15.3165   49.0215   -1.0776 H           1 N44       0.0557
     42 H8        -13.0041   50.8205    1.9638 H           1 N44       0.0557
     43 H9        -13.9868   43.3171   -3.1124 H           1 N44       0.0570
     44 H10       -16.1145   48.9357   -3.4786 H           1 N44       0.0445
     45 H11       -16.4390   50.5364   -5.2487 H           1 N44       0.0514
     46 H12       -16.2734   42.3950   -5.8332 H           1 N44       0.0292
     47 H13       -15.1568   43.5587   -6.3888 H           1 N44       0.0292
     48 H14       -16.7646   43.6914   -3.9985 H           1 N44       0.0725
     49 H15       -18.9846   49.2322   -8.9861 H           1 N44       0.0973
     50 H16       -20.1522   50.0291   -7.9184 H           1 N44       0.0973
     51 H17       -15.1545   48.1571    1.5150 H           1 N44       0.0683
     52 H18       -13.5541   48.4804    2.1971 H           1 N44       0.0683
     53 H19       -15.8406   45.7560   -0.9961 H           1 N44       0.0995
     54 H20       -16.0762   44.2658   -1.8357 H           1 N44       0.0995
     55 H21       -17.9122   45.7397   -3.0007 H           1 N44       0.0966
     56 H22       -17.3230   47.1273   -2.1253 H           1 N44       0.0966
     57 H23       -15.7132   45.9785   -5.2375 H           1 N44       0.0998
     58 H24       -14.3790   45.2145   -4.4681 H           1 N44       0.0998
     59 H25       -12.9478   47.7427   -0.2841 H           1 N44       0.1869
     60 H26       -15.1675   46.8117   -3.0494 H           1 N44       0.2082
@<TRIPOS>BOND
     1     3     1  ar
     2     4     1  ar
     3     5     2  ar
     4     6     2  ar
     5     7     3  ar
     6     8     4  ar
     7     9     5  ar
     8    12     6  ar
     9    14     7  ar
    10    14     8  ar
    11    15     9  ar
    12    10    11  ar
    13    16    10  ar
    14    11    17  ar
    15    15    12  ar
    16    12    21   1
    17    16    13  ar
    18    13    18  ar
    19    13    22   1
    20    24    14   1
    21    25    15   1
    22    26    16   1
    23    18    17  ar
    24    17    33   1
    25    18    34   1
    26    20    19   2
    27    27    20   1
    28    21    28  am
    29    21    31   2
    30    22    30  ar
    31    22    32  ar
    32    23    33   1
    33    34    23   1
    34    28    24   1
    35    29    25   1
    36    29    26   1
    37    27    29   1
    38     1    35   1
    39     2    36   1
    40     3    37   1
    41     4    38   1
    42     5    39   1
    43     6    40   1
    44     7    41   1
    45     8    42   1
    46     9    43   1
    47    10    44   1
    48    11    45   1
    49    19    46   1
    50    19    47   1
    51    20    48   1
    52    23    49   1
    53    23    50   1
    54    24    51   1
    55    24    52   1
    56    25    53   1
    57    25    54   1
    58    26    55   1
    59    26    56   1
    60    27    57   1
    61    27    58   1
    62    28    59   1
    63    29    60   1
@<TRIPOS>SUBSTRUCTURE
     1  N44      1

