@<TRIPOS>MOLECULE
3zsx_ligand_074
    60    63
SMALL
GAST_HUCK
****
This file was generated by PARSER (from files_GN.cpp)

@<TRIPOS>ATOM
      1 C1        -20.4823   52.6690   -2.6848 C.ar        1 N44      -0.0687
      2 C2        -13.0277   52.6414   -1.0273 C.ar        1 N44      -0.0630
      3 C3        -20.5723   51.5626   -1.8173 C.ar        1 N44      -0.0685
      4 C4        -19.4627   52.7163   -3.6544 C.ar        1 N44      -0.0685
      5 C5        -12.2612   51.8676   -0.1454 C.ar        1 N44      -0.0640
      6 C6        -14.2951   52.1873   -1.4375 C.ar        1 N44      -0.0483
      7 C7        -19.6493   50.5070   -1.9220 C.ar        1 N44      -0.0584
      8 C8        -18.5350   51.6608   -3.7524 C.ar        1 N44      -0.0584
      9 C9        -12.7480   50.6371    0.3148 C.ar        1 N44      -0.0493
     10 C10       -10.9448   45.9074   -1.5243 C.ar        1 N44      -0.0712
     11 C11       -10.1677   44.7357   -1.5298 C.ar        1 N44      -0.0449
     12 C12       -14.7972   50.9440   -0.9719 C.ar        1 N44       0.0564
     13 C13       -11.8350   45.3378    0.6870 C.ar        1 N44       0.0376
     14 C14       -18.6029   50.5547   -2.8725 C.ar        1 N44      -0.0211
     15 C15       -14.0088   50.1334   -0.0965 C.ar        1 N44       0.0219
     16 C16       -11.7686   46.2426   -0.4177 C.ar        1 N44      -0.0032
     17 C17       -10.2283   43.8767   -0.4220 C.ar        1 N44       0.1200
     18 C18       -11.0571   44.1625    0.6511 C.ar        1 N44       0.1327
     19 C19       -15.3805   44.5704   -1.6510 C.2         1 N44      -0.1125
     20 C20       -15.2803   45.6232   -0.8275 C.2         1 N44      -0.0447
     21 C21       -16.0855   50.6106   -1.3382 C.2         1 N44       0.2021
     22 C22       -12.6035   45.5781    1.8408 C.2         1 N44       0.0515
     23 C23       -10.0205   42.2899    1.0264 C.3         1 N44       0.1864
     24 C24       -17.5723   49.4899   -2.9319 C.3         1 N44       0.0638
     25 C25       -14.4672   48.8171    0.4705 C.3         1 N44       0.0086
     26 C26       -12.4583   47.5722   -0.4074 C.3         1 N44       0.0003
     27 C27       -14.7631   46.9237   -1.2220 C.3         1 N44      -0.0011
     28 N28       -16.3012   49.9543   -2.4709 N.am        1 N44      -0.2760
     29 N29       -13.9346   47.5386   -0.1218 N.4         1 N44       0.2715
     30 O30       -13.8768   45.1177    1.9012 O.co2       1 N44      -0.5668
     31 O31       -17.0005   50.9603   -0.5984 O.2         1 N44      -0.3884
     32 O32       -12.1992   46.4766    2.7664 O.co2       1 N44      -0.5668
     33 O33        -9.5058   42.7583   -0.2316 O.3         1 N44      -0.2947
     34 O34       -10.9199   43.2356    1.6277 O.3         1 N44      -0.2890
     35 H1        -21.1408   53.4442   -2.5991 H           1 N44       0.0559
     36 H2        -12.6801   53.5468   -1.3623 H           1 N44       0.0572
     37 H3        -21.3093   51.5339   -1.1080 H           1 N44       0.0599
     38 H4        -19.3931   53.5204   -4.2841 H           1 N44       0.0599
     39 H5        -11.3529   52.2102    0.1662 H           1 N44       0.0635
     40 H6        -14.8535   52.7805   -2.0625 H           1 N44       0.0651
     41 H7        -19.7246   49.7233   -1.2715 H           1 N44       0.0557
     42 H8        -17.7901   51.7189   -4.4557 H           1 N44       0.0557
     43 H9        -12.1793   50.1192    0.9801 H           1 N44       0.0570
     44 H10       -10.8728   46.5337   -2.3278 H           1 N44       0.0445
     45 H11        -9.5447   44.5219   -2.3115 H           1 N44       0.0514
     46 H12       -15.7878   43.7247   -1.3270 H           1 N44       0.0292
     47 H13       -15.0796   44.6246   -2.5987 H           1 N44       0.0292
     48 H14       -15.6637   45.5321    0.0820 H           1 N44       0.0725
     49 H15        -9.1900   42.1043    1.7103 H           1 N44       0.0973
     50 H16       -10.5486   41.3472    0.8603 H           1 N44       0.0973
     51 H17       -17.4655   49.1505   -3.9622 H           1 N44       0.0683
     52 H18       -17.8581   48.6216   -2.3374 H           1 N44       0.0683
     53 H19       -15.5572   48.7695    0.4775 H           1 N44       0.0995
     54 H20       -14.2108   48.8041    1.5298 H           1 N44       0.0995
     55 H21       -12.2985   48.1084   -1.3430 H           1 N44       0.0966
     56 H22       -11.9523   48.1526    0.3664 H           1 N44       0.0966
     57 H23       -15.6389   47.5423   -1.4540 H           1 N44       0.0998
     58 H24       -14.1932   46.8469   -2.1568 H           1 N44       0.0998
     59 H25       -15.5142   49.6936   -2.9809 H           1 N44       0.1869
     60 H26       -14.0280   46.8831    0.6485 H           1 N44       0.2082
@<TRIPOS>BOND
     1     3     1  ar
     2     4     1  ar
     3     5     2  ar
     4     6     2  ar
     5     7     3  ar
     6     8     4  ar
     7     9     5  ar
     8    12     6  ar
     9    14     7  ar
    10    14     8  ar
    11    15     9  ar
    12    10    11  ar
    13    16    10  ar
    14    11    17  ar
    15    15    12  ar
    16    12    21   1
    17    16    13  ar
    18    13    18  ar
    19    13    22   1
    20    24    14   1
    21    25    15   1
    22    26    16   1
    23    18    17  ar
    24    17    33   1
    25    18    34   1
    26    20    19   2
    27    27    20   1
    28    21    28  am
    29    21    31   2
    30    22    30  ar
    31    22    32  ar
    32    23    33   1
    33    34    23   1
    34    28    24   1
    35    29    25   1
    36    29    26   1
    37    27    29   1
    38     1    35   1
    39     2    36   1
    40     3    37   1
    41     4    38   1
    42     5    39   1
    43     6    40   1
    44     7    41   1
    45     8    42   1
    46     9    43   1
    47    10    44   1
    48    11    45   1
    49    19    46   1
    50    19    47   1
    51    20    48   1
    52    23    49   1
    53    23    50   1
    54    24    51   1
    55    24    52   1
    56    25    53   1
    57    25    54   1
    58    26    55   1
    59    26    56   1
    60    27    57   1
    61    27    58   1
    62    28    59   1
    63    29    60   1
@<TRIPOS>SUBSTRUCTURE
     1  N44      1

