@<TRIPOS>MOLECULE
3zsx_ligand_004
    60    63
SMALL
GAST_HUCK
****
This file was generated by PARSER (from files_GN.cpp)

@<TRIPOS>ATOM
      1 C1        -20.2963   40.9257   -7.9810 C.ar        1 N44      -0.0687
      2 C2        -18.2868   48.9110   -5.7855 C.ar        1 N44      -0.0630
      3 C3        -19.1934   40.2335   -7.4360 C.ar        1 N44      -0.0685
      4 C4        -20.4388   42.3031   -7.7371 C.ar        1 N44      -0.0685
      5 C5        -17.3686   49.4372   -4.8661 C.ar        1 N44      -0.0640
      6 C6        -18.4795   47.5228   -5.8623 C.ar        1 N44      -0.0483
      7 C7        -18.2461   40.9117   -6.6478 C.ar        1 N44      -0.0584
      8 C8        -19.4833   42.9882   -6.9581 C.ar        1 N44      -0.0584
      9 C9        -16.6294   48.5693   -4.0454 C.ar        1 N44      -0.0493
     10 C10       -13.0848   45.2452   -2.4576 C.ar        1 N44      -0.0712
     11 C11       -11.7818   45.7485   -2.5973 C.ar        1 N44      -0.0449
     12 C12       -17.7343   46.6324   -5.0450 C.ar        1 N44       0.0564
     13 C13       -13.2408   46.1403   -0.1704 C.ar        1 N44       0.0376
     14 C14       -18.3704   42.3060   -6.4014 C.ar        1 N44      -0.0211
     15 C15       -16.7731   47.1613   -4.1282 C.ar        1 N44       0.0219
     16 C16       -13.8483   45.4431   -1.2714 C.ar        1 N44      -0.0032
     17 C17       -11.2217   46.4557   -1.5299 C.ar        1 N44       0.1200
     18 C18       -11.9262   46.6446   -0.3499 C.ar        1 N44       0.1327
     19 C19       -19.5875   44.7209   -0.6167 C.2         1 N44      -0.1125
     20 C20       -18.2825   44.5304   -0.8970 C.2         1 N44      -0.0447
     21 C21       -18.0494   45.2830   -5.1281 C.2         1 N44       0.2021
     22 C22       -13.8486   46.3173    1.1038 C.2         1 N44       0.0515
     23 C23        -9.8795   47.3462   -0.1018 C.3         1 N44       0.1864
     24 C24       -17.3029   42.9791   -5.6026 C.3         1 N44       0.0638
     25 C25       -15.8538   46.3130   -3.2908 C.3         1 N44       0.0086
     26 C26       -15.2603   44.9254   -1.2846 C.3         1 N44       0.0003
     27 C27       -17.6376   45.0238   -2.1065 C.3         1 N44      -0.0011
     28 N28       -17.1930   44.4120   -5.6360 N.am        1 N44      -0.2760
     29 N29       -16.3271   45.7572   -1.9643 N.4         1 N44       0.2715
     30 O30       -13.4515   47.3077    1.9389 O.co2       1 N44      -0.5668
     31 O31       -19.1545   44.9365   -4.7358 O.2         1 N44      -0.3884
     32 O32       -14.4981   45.2979    1.7037 O.co2       1 N44      -0.5668
     33 O33        -9.9884   46.9963   -1.4899 O.3         1 N44      -0.2947
     34 O34       -11.1656   47.3188    0.5424 O.3         1 N44      -0.2890
     35 H1        -20.9890   40.4244   -8.5572 H           1 N44       0.0559
     36 H2        -18.8151   49.5414   -6.3986 H           1 N44       0.0572
     37 H3        -19.0881   39.2298   -7.6140 H           1 N44       0.0599
     38 H4        -21.2298   42.8085   -8.1294 H           1 N44       0.0599
     39 H5        -17.2369   50.4491   -4.7995 H           1 N44       0.0635
     40 H6        -19.1605   47.1706   -6.5416 H           1 N44       0.0651
     41 H7        -17.4514   40.3810   -6.2642 H           1 N44       0.0557
     42 H8        -19.6083   43.9920   -6.8145 H           1 N44       0.0557
     43 H9        -15.9740   48.9872   -3.3811 H           1 N44       0.0570
     44 H10       -13.4869   44.7468   -3.2566 H           1 N44       0.0445
     45 H11       -11.2552   45.6109   -3.4613 H           1 N44       0.0514
     46 H12       -19.9945   44.2663    0.1616 H           1 N44       0.0292
     47 H13       -20.1603   45.3034   -1.1798 H           1 N44       0.0292
     48 H14       -17.7765   43.9064   -0.3152 H           1 N44       0.0725
     49 H15        -9.4482   48.3444   -0.0109 H           1 N44       0.0973
     50 H16        -9.2112   46.6370    0.3961 H           1 N44       0.0973
     51 H17       -16.3376   42.6008   -5.9592 H           1 N44       0.0683
     52 H18       -17.3978   42.6768   -4.5590 H           1 N44       0.0683
     53 H19       -14.9672   46.9215   -3.0969 H           1 N44       0.0995
     54 H20       -15.4854   45.4853   -3.8969 H           1 N44       0.0995
     55 H21       -15.5669   44.7718   -0.2558 H           1 N44       0.0966
     56 H22       -15.2643   43.9235   -1.7293 H           1 N44       0.0966
     57 H23       -18.3439   45.6861   -2.6123 H           1 N44       0.0998
     58 H24       -17.4797   44.1572   -2.7560 H           1 N44       0.0998
     59 H25       -16.3610   44.7775   -5.9901 H           1 N44       0.1869
     60 H26       -16.5219   46.5351   -1.3319 H           1 N44       0.2082
@<TRIPOS>BOND
     1     3     1  ar
     2     4     1  ar
     3     5     2  ar
     4     6     2  ar
     5     7     3  ar
     6     8     4  ar
     7     9     5  ar
     8    12     6  ar
     9    14     7  ar
    10    14     8  ar
    11    15     9  ar
    12    10    11  ar
    13    16    10  ar
    14    11    17  ar
    15    15    12  ar
    16    12    21   1
    17    16    13  ar
    18    13    18  ar
    19    13    22   1
    20    24    14   1
    21    25    15   1
    22    26    16   1
    23    18    17  ar
    24    17    33   1
    25    18    34   1
    26    20    19   2
    27    27    20   1
    28    21    28  am
    29    21    31   2
    30    22    30  ar
    31    22    32  ar
    32    23    33   1
    33    34    23   1
    34    28    24   1
    35    29    25   1
    36    29    26   1
    37    27    29   1
    38     1    35   1
    39     2    36   1
    40     3    37   1
    41     4    38   1
    42     5    39   1
    43     6    40   1
    44     7    41   1
    45     8    42   1
    46     9    43   1
    47    10    44   1
    48    11    45   1
    49    19    46   1
    50    19    47   1
    51    20    48   1
    52    23    49   1
    53    23    50   1
    54    24    51   1
    55    24    52   1
    56    25    53   1
    57    25    54   1
    58    26    55   1
    59    26    56   1
    60    27    57   1
    61    27    58   1
    62    28    59   1
    63    29    60   1
@<TRIPOS>SUBSTRUCTURE
     1  N44      1

