@<TRIPOS>MOLECULE
3zsx_ligand_050
    60    63
SMALL
GAST_HUCK
****
This file was generated by PARSER (from files_GN.cpp)

@<TRIPOS>ATOM
      1 C1        -18.0433   50.2031   -8.9569 C.ar        1 N44      -0.0687
      2 C2        -17.2254   43.8627   -5.1841 C.ar        1 N44      -0.0630
      3 C3        -16.6525   50.3249   -9.1280 C.ar        1 N44      -0.0685
      4 C4        -18.5634   49.7517   -7.7304 C.ar        1 N44      -0.0685
      5 C5        -16.9234   43.1305   -4.0309 C.ar        1 N44      -0.0640
      6 C6        -16.8869   45.2235   -5.2558 C.ar        1 N44      -0.0483
      7 C7        -15.7810   49.9926   -8.0740 C.ar        1 N44      -0.0584
      8 C8        -17.6930   49.4220   -6.6765 C.ar        1 N44      -0.0584
      9 C9        -16.2665   43.7562   -2.9563 C.ar        1 N44      -0.0493
     10 C10       -10.1743   46.3804   -1.3968 C.ar        1 N44      -0.0712
     11 C11        -8.9938   46.1933   -0.6529 C.ar        1 N44      -0.0449
     12 C12       -16.2272   45.8761   -4.1845 C.ar        1 N44       0.0564
     13 C13       -11.5220   46.1716    0.6307 C.ar        1 N44       0.0376
     14 C14       -16.2897   49.5343   -6.8362 C.ar        1 N44      -0.0211
     15 C15       -15.8672   45.1113   -3.0221 C.ar        1 N44       0.0219
     16 C16       -11.4558   46.3388   -0.7855 C.ar        1 N44      -0.0032
     17 C17        -9.0898   46.0103    0.7322 C.ar        1 N44       0.1200
     18 C18       -10.3221   46.0216    1.3646 C.ar        1 N44       0.1327
     19 C19       -11.3745   42.8172   -2.5398 C.2         1 N44      -0.1125
     20 C20       -11.6514   44.0437   -3.0045 C.2         1 N44      -0.0447
     21 C21       -16.0260   47.2521   -4.3008 C.2         1 N44       0.2021
     22 C22       -12.7268   46.2341    1.3513 C.2         1 N44       0.0515
     23 C23        -8.7746   45.6329    2.8330 C.3         1 N44       0.1864
     24 C24       -15.3864   49.1752   -5.7152 C.3         1 N44       0.0638
     25 C25       -15.0073   45.6325   -1.9038 C.3         1 N44       0.0086
     26 C26       -12.6721   46.6031   -1.6222 C.3         1 N44       0.0003
     27 C27       -13.0011   44.5879   -3.1164 C.3         1 N44      -0.0011
     28 N28       -15.5242   47.7814   -5.4086 N.am        1 N44      -0.2760
     29 N29       -13.5034   45.3726   -1.9294 N.4         1 N44       0.2715
     30 O30       -13.5950   45.2006    1.3140 O.co2       1 N44      -0.5668
     31 O31       -16.4998   47.9725   -3.4256 O.2         1 N44      -0.3884
     32 O32       -12.9048   47.2039    2.2747 O.co2       1 N44      -0.5668
     33 O33        -8.0716   45.8654    1.6003 O.3         1 N44      -0.2947
     34 O34       -10.1824   45.9044    2.7011 O.3         1 N44      -0.2890
     35 H1        -18.6766   50.4453   -9.7228 H           1 N44       0.0559
     36 H2        -17.7129   43.4148   -5.9627 H           1 N44       0.0572
     37 H3        -16.2747   50.6545  -10.0189 H           1 N44       0.0599
     38 H4        -19.5745   49.6635   -7.6055 H           1 N44       0.0599
     39 H5        -17.1821   42.1438   -3.9721 H           1 N44       0.0635
     40 H6        -17.1640   45.7391   -6.0977 H           1 N44       0.0651
     41 H7        -14.7735   50.0885   -8.2189 H           1 N44       0.0557
     42 H8        -18.0883   49.0965   -5.7914 H           1 N44       0.0557
     43 H9        -16.0317   43.1834   -2.1444 H           1 N44       0.0570
     44 H10       -10.0900   46.5601   -2.3980 H           1 N44       0.0445
     45 H11        -8.0815   46.2148   -1.1093 H           1 N44       0.0514
     46 H12       -10.4411   42.4814   -2.5387 H           1 N44       0.0292
     47 H13       -12.0956   42.2180   -2.2128 H           1 N44       0.0292
     48 H14       -10.8968   44.5907   -3.3589 H           1 N44       0.0725
     49 H15        -8.3543   46.2711    3.6126 H           1 N44       0.0973
     50 H16        -8.6383   44.5899    3.1308 H           1 N44       0.0973
     51 H17       -15.6167   49.8204   -4.8618 H           1 N44       0.0683
     52 H18       -14.3405   49.3522   -5.9734 H           1 N44       0.0683
     53 H19       -15.3729   45.1815   -0.9796 H           1 N44       0.0995
     54 H20       -15.2264   46.6862   -1.7662 H           1 N44       0.0995
     55 H21       -12.4050   47.0922   -2.5575 H           1 N44       0.0966
     56 H22       -13.2360   47.3529   -1.0630 H           1 N44       0.0966
     57 H23       -13.6572   43.7377   -3.2919 H           1 N44       0.0998
     58 H24       -13.0492   45.2088   -4.0063 H           1 N44       0.0998
     59 H25       -15.2425   47.1637   -6.1014 H           1 N44       0.1869
     60 H26       -13.3360   44.7411   -1.1390 H           1 N44       0.2082
@<TRIPOS>BOND
     1     3     1  ar
     2     4     1  ar
     3     5     2  ar
     4     6     2  ar
     5     7     3  ar
     6     8     4  ar
     7     9     5  ar
     8    12     6  ar
     9    14     7  ar
    10    14     8  ar
    11    15     9  ar
    12    10    11  ar
    13    16    10  ar
    14    11    17  ar
    15    15    12  ar
    16    12    21   1
    17    16    13  ar
    18    13    18  ar
    19    13    22   1
    20    24    14   1
    21    25    15   1
    22    26    16   1
    23    18    17  ar
    24    17    33   1
    25    18    34   1
    26    20    19   2
    27    27    20   1
    28    21    28  am
    29    21    31   2
    30    22    30  ar
    31    22    32  ar
    32    23    33   1
    33    34    23   1
    34    28    24   1
    35    29    25   1
    36    29    26   1
    37    27    29   1
    38     1    35   1
    39     2    36   1
    40     3    37   1
    41     4    38   1
    42     5    39   1
    43     6    40   1
    44     7    41   1
    45     8    42   1
    46     9    43   1
    47    10    44   1
    48    11    45   1
    49    19    46   1
    50    19    47   1
    51    20    48   1
    52    23    49   1
    53    23    50   1
    54    24    51   1
    55    24    52   1
    56    25    53   1
    57    25    54   1
    58    26    55   1
    59    26    56   1
    60    27    57   1
    61    27    58   1
    62    28    59   1
    63    29    60   1
@<TRIPOS>SUBSTRUCTURE
     1  N44      1

