@<TRIPOS>MOLECULE
3zsx_ligand_045
    60    63
SMALL
GAST_HUCK
****
This file was generated by PARSER (from files_GN.cpp)

@<TRIPOS>ATOM
      1 C1        -17.2238   49.0368   -9.3612 C.ar        1 N44      -0.0687
      2 C2        -15.9888   50.7845   -0.5985 C.ar        1 N44      -0.0630
      3 C3        -17.0786   48.0679   -8.3532 C.ar        1 N44      -0.0685
      4 C4        -17.9498   50.2127   -9.1023 C.ar        1 N44      -0.0685
      5 C5        -14.9934   49.8108   -0.4439 C.ar        1 N44      -0.0640
      6 C6        -17.0095   50.5985   -1.5426 C.ar        1 N44      -0.0483
      7 C7        -17.6647   48.2693   -7.0925 C.ar        1 N44      -0.0584
      8 C8        -18.5264   50.4203   -7.8356 C.ar        1 N44      -0.0584
      9 C9        -15.0192   48.6546   -1.2418 C.ar        1 N44      -0.0493
     10 C10       -12.9940   45.5565   -2.5605 C.ar        1 N44      -0.0712
     11 C11       -11.7020   46.1090   -2.5772 C.ar        1 N44      -0.0449
     12 C12       -17.0470   49.4329   -2.3502 C.ar        1 N44       0.0564
     13 C13       -13.2993   46.2443   -0.2160 C.ar        1 N44       0.0376
     14 C14       -18.3882   49.4524   -6.8140 C.ar        1 N44      -0.0211
     15 C15       -16.0307   48.4338   -2.2088 C.ar        1 N44       0.0219
     16 C16       -13.8197   45.6226   -1.4008 C.ar        1 N44      -0.0032
     17 C17       -11.2230   46.7391   -1.4253 C.ar        1 N44       0.1200
     18 C18       -11.9972   46.8066   -0.2754 C.ar        1 N44       0.1327
     19 C19       -19.6641   45.5103   -1.1916 C.2         1 N44      -0.1125
     20 C20       -18.4606   44.9449   -1.3197 C.2         1 N44      -0.0447
     21 C21       -18.1090   49.3119   -3.2242 C.2         1 N44       0.2021
     22 C22       -13.9907   46.3152    1.0148 C.2         1 N44       0.0515
     23 C23       -10.1043   47.8344    0.0616 C.3         1 N44       0.1864
     24 C24       -19.0049   49.6347   -5.4797 C.3         1 N44       0.0638
     25 C25       -16.0115   47.1365   -2.9656 C.3         1 N44       0.0086
     26 C26       -15.2098   45.0753   -1.5516 C.3         1 N44       0.0003
     27 C27       -17.5721   45.2183   -2.4416 C.3         1 N44      -0.0011
     28 N28       -17.9944   49.7417   -4.4687 N.am        1 N44      -0.2760
     29 N29       -16.3226   45.9771   -2.0494 N.4         1 N44       0.2715
     30 O30       -13.7543   47.3059    1.9095 O.co2       1 N44      -0.5668
     31 O31       -19.1483   48.8107   -2.8117 O.2         1 N44      -0.3884
     32 O32       -14.5615   45.2059    1.5352 O.co2       1 N44      -0.5668
     33 O33       -10.0098   47.2970   -1.2681 O.3         1 N44      -0.2947
     34 O34       -11.3125   47.4102    0.7183 O.3         1 N44      -0.2890
     35 H1        -16.8036   48.8833  -10.2795 H           1 N44       0.0559
     36 H2        -15.9720   51.6309   -0.0211 H           1 N44       0.0572
     37 H3        -16.5462   47.2140   -8.5336 H           1 N44       0.0599
     38 H4        -18.0603   50.9160   -9.8364 H           1 N44       0.0599
     39 H5        -14.2510   49.9438    0.2454 H           1 N44       0.0635
     40 H6        -17.7225   51.3282   -1.6369 H           1 N44       0.0651
     41 H7        -17.5580   47.5461   -6.3784 H           1 N44       0.0557
     42 H8        -19.0516   51.2831   -7.6663 H           1 N44       0.0557
     43 H9        -14.2763   47.9653   -1.1048 H           1 N44       0.0570
     44 H10       -13.3386   45.1214   -3.4183 H           1 N44       0.0445
     45 H11       -11.1204   46.0516   -3.4180 H           1 N44       0.0514
     46 H12       -20.2333   45.2971   -0.4062 H           1 N44       0.0292
     47 H13       -20.0141   46.1447   -1.8714 H           1 N44       0.0292
     48 H14       -18.1541   44.3328   -0.6064 H           1 N44       0.0725
     49 H15       -10.0897   48.9277    0.0076 H           1 N44       0.0973
     50 H16        -9.2418   47.5086    0.6439 H           1 N44       0.0973
     51 H17       -19.6396   48.7708   -5.2793 H           1 N44       0.0683
     52 H18       -19.6260   50.5305   -5.4396 H           1 N44       0.0683
     53 H19       -15.0449   47.0254   -3.4452 H           1 N44       0.0995
     54 H20       -16.6922   47.1905   -3.8103 H           1 N44       0.0995
     55 H21       -15.5443   44.6939   -0.5828 H           1 N44       0.0966
     56 H22       -15.1367   44.1696   -2.1643 H           1 N44       0.0966
     57 H23       -18.1633   45.7849   -3.1641 H           1 N44       0.0998
     58 H24       -17.3150   44.2771   -2.9407 H           1 N44       0.0998
     59 H25       -17.1401   50.1314   -4.7292 H           1 N44       0.1869
     60 H26       -16.5951   46.4441   -1.1887 H           1 N44       0.2082
@<TRIPOS>BOND
     1     3     1  ar
     2     4     1  ar
     3     5     2  ar
     4     6     2  ar
     5     7     3  ar
     6     8     4  ar
     7     9     5  ar
     8    12     6  ar
     9    14     7  ar
    10    14     8  ar
    11    15     9  ar
    12    10    11  ar
    13    16    10  ar
    14    11    17  ar
    15    15    12  ar
    16    12    21   1
    17    16    13  ar
    18    13    18  ar
    19    13    22   1
    20    24    14   1
    21    25    15   1
    22    26    16   1
    23    18    17  ar
    24    17    33   1
    25    18    34   1
    26    20    19   2
    27    27    20   1
    28    21    28  am
    29    21    31   2
    30    22    30  ar
    31    22    32  ar
    32    23    33   1
    33    34    23   1
    34    28    24   1
    35    29    25   1
    36    29    26   1
    37    27    29   1
    38     1    35   1
    39     2    36   1
    40     3    37   1
    41     4    38   1
    42     5    39   1
    43     6    40   1
    44     7    41   1
    45     8    42   1
    46     9    43   1
    47    10    44   1
    48    11    45   1
    49    19    46   1
    50    19    47   1
    51    20    48   1
    52    23    49   1
    53    23    50   1
    54    24    51   1
    55    24    52   1
    56    25    53   1
    57    25    54   1
    58    26    55   1
    59    26    56   1
    60    27    57   1
    61    27    58   1
    62    28    59   1
    63    29    60   1
@<TRIPOS>SUBSTRUCTURE
     1  N44      1

