@<TRIPOS>MOLECULE
3zsx_ligand_087
    60    63
SMALL
GAST_HUCK
****
This file was generated by PARSER (from files_GN.cpp)

@<TRIPOS>ATOM
      1 C1        -19.6929   42.8378   -8.5480 C.ar        1 N44      -0.0687
      2 C2        -20.1400   51.5661   -6.8193 C.ar        1 N44      -0.0630
      3 C3        -19.7026   43.2837   -7.2135 C.ar        1 N44      -0.0685
      4 C4        -20.4514   43.5182   -9.5194 C.ar        1 N44      -0.0685
      5 C5        -18.7687   51.8329   -6.9393 C.ar        1 N44      -0.0640
      6 C6        -20.6233   50.2757   -7.0879 C.ar        1 N44      -0.0483
      7 C7        -20.4671   44.4096   -6.8503 C.ar        1 N44      -0.0584
      8 C8        -21.2223   44.6351   -9.1532 C.ar        1 N44      -0.0584
      9 C9        -17.8818   50.7962   -7.2734 C.ar        1 N44      -0.0493
     10 C10       -15.8434   50.3490   -4.5161 C.ar        1 N44      -0.0712
     11 C11       -15.7521   51.7166   -4.1941 C.ar        1 N44      -0.0449
     12 C12       -19.7388   49.2224   -7.4358 C.ar        1 N44       0.0564
     13 C13       -14.3167   50.6638   -6.4113 C.ar        1 N44       0.0376
     14 C14       -21.2388   45.0978   -7.8140 C.ar        1 N44      -0.0211
     15 C15       -18.3313   49.4683   -7.4708 C.ar        1 N44       0.0219
     16 C16       -15.1579   49.8061   -5.6365 C.ar        1 N44      -0.0032
     17 C17       -14.9588   52.5480   -4.9953 C.ar        1 N44       0.1200
     18 C18       -14.2597   52.0330   -6.0714 C.ar        1 N44       0.1327
     19 C19       -16.3466   44.2727   -5.6184 C.2         1 N44      -0.1125
     20 C20       -16.2690   45.4915   -6.1697 C.2         1 N44      -0.0447
     21 C21       -20.3068   48.0178   -7.8230 C.2         1 N44       0.2021
     22 C22       -13.5647   50.2289   -7.5244 C.2         1 N44       0.0515
     23 C23       -13.9911   54.1869   -6.0028 C.3         1 N44       0.1864
     24 C24       -22.0224   46.3030   -7.4299 C.3         1 N44       0.0638
     25 C25       -17.2902   48.3863   -7.5834 C.3         1 N44       0.0086
     26 C26       -15.3662   48.3436   -5.9076 C.3         1 N44       0.0003
     27 C27       -17.1505   46.5852   -5.7749 C.3         1 N44      -0.0011
     28 N28       -21.2015   47.4091   -7.0518 N.am        1 N44      -0.2760
     29 N29       -16.7982   47.9845   -6.2121 N.4         1 N44       0.2715
     30 O30       -12.6525   49.2442   -7.3978 O.co2       1 N44      -0.5668
     31 O31       -20.0812   47.6219   -8.9601 O.2         1 N44      -0.3884
     32 O32       -13.5231   50.9728   -8.6627 O.co2       1 N44      -0.5668
     33 O33       -14.7430   53.8621   -4.8199 O.3         1 N44      -0.2947
     34 O34       -13.5124   53.0005   -6.6543 O.3         1 N44      -0.2890
     35 H1        -19.1321   42.0255   -8.8140 H           1 N44       0.0559
     36 H2        -20.7853   52.3157   -6.5617 H           1 N44       0.0572
     37 H3        -19.1479   42.7908   -6.5109 H           1 N44       0.0599
     38 H4        -20.4356   43.1991  -10.4926 H           1 N44       0.0599
     39 H5        -18.4121   52.7775   -6.7689 H           1 N44       0.0635
     40 H6        -21.6326   50.1231   -7.0495 H           1 N44       0.0651
     41 H7        -20.4547   44.7248   -5.8780 H           1 N44       0.0557
     42 H8        -21.7613   45.1189   -9.8748 H           1 N44       0.0557
     43 H9        -16.8875   51.0270   -7.3592 H           1 N44       0.0570
     44 H10       -16.4380   49.7527   -3.9360 H           1 N44       0.0445
     45 H11       -16.2553   52.0910   -3.3862 H           1 N44       0.0514
     46 H12       -15.6877   43.5655   -5.8515 H           1 N44       0.0292
     47 H13       -17.0371   44.0636   -4.9311 H           1 N44       0.0292
     48 H14       -15.5385   45.6633   -6.8256 H           1 N44       0.0725
     49 H15       -13.1450   54.8243   -5.7350 H           1 N44       0.0973
     50 H16       -14.6316   54.7393   -6.6954 H           1 N44       0.0973
     51 H17       -22.6724   46.0497   -6.5930 H           1 N44       0.0683
     52 H18       -22.6703   46.6312   -8.2474 H           1 N44       0.0683
     53 H19       -16.4731   48.7484   -8.2147 H           1 N44       0.0995
     54 H20       -17.6865   47.5244   -8.1196 H           1 N44       0.0995
     55 H21       -15.0281   47.8224   -5.0085 H           1 N44       0.0966
     56 H22       -14.7396   47.9838   -6.7189 H           1 N44       0.0966
     57 H23       -17.1717   46.6055   -4.6812 H           1 N44       0.0998
     58 H24       -18.1700   46.3388   -6.0947 H           1 N44       0.0998
     59 H25       -21.3554   47.7887   -6.1680 H           1 N44       0.1869
     60 H26       -17.3439   48.5569   -5.5663 H           1 N44       0.2082
@<TRIPOS>BOND
     1     3     1  ar
     2     4     1  ar
     3     5     2  ar
     4     6     2  ar
     5     7     3  ar
     6     8     4  ar
     7     9     5  ar
     8    12     6  ar
     9    14     7  ar
    10    14     8  ar
    11    15     9  ar
    12    10    11  ar
    13    16    10  ar
    14    11    17  ar
    15    15    12  ar
    16    12    21   1
    17    16    13  ar
    18    13    18  ar
    19    13    22   1
    20    24    14   1
    21    25    15   1
    22    26    16   1
    23    18    17  ar
    24    17    33   1
    25    18    34   1
    26    20    19   2
    27    27    20   1
    28    21    28  am
    29    21    31   2
    30    22    30  ar
    31    22    32  ar
    32    23    33   1
    33    34    23   1
    34    28    24   1
    35    29    25   1
    36    29    26   1
    37    27    29   1
    38     1    35   1
    39     2    36   1
    40     3    37   1
    41     4    38   1
    42     5    39   1
    43     6    40   1
    44     7    41   1
    45     8    42   1
    46     9    43   1
    47    10    44   1
    48    11    45   1
    49    19    46   1
    50    19    47   1
    51    20    48   1
    52    23    49   1
    53    23    50   1
    54    24    51   1
    55    24    52   1
    56    25    53   1
    57    25    54   1
    58    26    55   1
    59    26    56   1
    60    27    57   1
    61    27    58   1
    62    28    59   1
    63    29    60   1
@<TRIPOS>SUBSTRUCTURE
     1  N44      1

