@<TRIPOS>MOLECULE
3zsx_ligand_025
    60    63
SMALL
GAST_HUCK
****
This file was generated by PARSER (from files_GN.cpp)

@<TRIPOS>ATOM
      1 C1         -6.6912   41.7924    1.5728 C.ar        1 N44      -0.0687
      2 C2        -13.0966   45.6044    1.3749 C.ar        1 N44      -0.0630
      3 C3         -7.8732   41.0984    1.2572 C.ar        1 N44      -0.0685
      4 C4         -6.2942   42.8950    0.7962 C.ar        1 N44      -0.0685
      5 C5        -14.0447   46.4045    0.7265 C.ar        1 N44      -0.0640
      6 C6        -12.2740   44.7465    0.6252 C.ar        1 N44      -0.0483
      7 C7         -8.6663   41.5150    0.1721 C.ar        1 N44      -0.0584
      8 C8         -7.0788   43.3018   -0.2977 C.ar        1 N44      -0.0584
      9 C9        -14.1716   46.3417   -0.6719 C.ar        1 N44      -0.0493
     10 C10       -15.4666   42.8052   -5.9460 C.ar        1 N44      -0.0712
     11 C11       -16.1982   41.7289   -6.4896 C.ar        1 N44      -0.0449
     12 C12       -12.3847   44.6657   -0.7879 C.ar        1 N44       0.0564
     13 C13       -17.5307   44.0845   -5.6029 C.ar        1 N44       0.0376
     14 C14        -8.2765   42.6211   -0.6193 C.ar        1 N44      -0.0211
     15 C15       -13.3636   45.4723   -1.4490 C.ar        1 N44       0.0219
     16 C16       -16.1111   43.9675   -5.4563 C.ar        1 N44      -0.0032
     17 C17       -17.5942   41.8299   -6.5524 C.ar        1 N44       0.1200
     18 C18       -18.2421   42.9823   -6.1378 C.ar        1 N44       0.1327
     19 C19       -17.1152   43.8715   -0.8377 C.2         1 N44      -0.1125
     20 C20       -16.3958   44.4026   -1.8309 C.2         1 N44      -0.0447
     21 C21       -11.5095   43.8118   -1.4588 C.2         1 N44       0.2021
     22 C22       -18.2642   45.2482   -5.2627 C.2         1 N44       0.0515
     23 C23       -19.6675   41.6686   -7.1145 C.3         1 N44       0.1864
     24 C24        -9.1470   43.0916   -1.7262 C.3         1 N44       0.0638
     25 C25       -13.5935   45.4719   -2.9342 C.3         1 N44       0.0086
     26 C26       -15.2655   44.9588   -4.7227 C.3         1 N44       0.0003
     27 C27       -15.3714   43.6529   -2.5397 C.3         1 N44      -0.0011
     28 N28       -10.2118   43.8681   -1.1740 N.am        1 N44      -0.2760
     29 N29       -14.5212   44.4250   -3.5196 N.4         1 N44       0.2715
     30 O30       -19.5344   45.1738   -4.8071 O.co2       1 N44      -0.5668
     31 O31       -11.9347   43.0362   -2.3052 O.2         1 N44      -0.3884
     32 O32       -17.8547   46.4657   -5.6905 O.co2       1 N44      -0.5668
     33 O33       -18.4506   40.9109   -7.0335 O.3         1 N44      -0.2947
     34 O34       -19.5738   42.8803   -6.3506 O.3         1 N44      -0.2890
     35 H1         -6.1215   41.5011    2.3729 H           1 N44       0.0559
     36 H2        -13.0042   45.6403    2.3913 H           1 N44       0.0572
     37 H3         -8.1594   40.2969    1.8247 H           1 N44       0.0599
     38 H4         -5.4396   43.4011    1.0335 H           1 N44       0.0599
     39 H5        -14.6433   47.0328    1.2687 H           1 N44       0.0635
     40 H6        -11.6034   44.1659    1.1316 H           1 N44       0.0651
     41 H7         -9.5314   41.0128   -0.0315 H           1 N44       0.0557
     42 H8         -6.7805   44.1143   -0.8424 H           1 N44       0.0557
     43 H9        -14.8762   46.9404   -1.1152 H           1 N44       0.0570
     44 H10       -14.4496   42.7126   -5.8858 H           1 N44       0.0445
     45 H11       -15.7206   40.8882   -6.8243 H           1 N44       0.0514
     46 H12       -17.8189   44.4089   -0.3915 H           1 N44       0.0292
     47 H13       -16.9639   42.9402   -0.5304 H           1 N44       0.0292
     48 H14       -16.5658   45.3447   -2.0889 H           1 N44       0.0725
     49 H15       -20.4969   41.0679   -6.7400 H           1 N44       0.0973
     50 H16       -19.8659   41.9196   -8.1594 H           1 N44       0.0973
     51 H17        -9.5042   42.2375   -2.3129 H           1 N44       0.0683
     52 H18        -8.5907   43.7452   -2.4053 H           1 N44       0.0683
     53 H19       -12.6269   45.3656   -3.4315 H           1 N44       0.0995
     54 H20       -13.9285   46.4734   -3.2177 H           1 N44       0.0995
     55 H21       -15.8569   45.8127   -4.4027 H           1 N44       0.0966
     56 H22       -14.5383   45.3474   -5.4375 H           1 N44       0.0966
     57 H23       -15.8613   42.8274   -3.0614 H           1 N44       0.0998
     58 H24       -14.7065   43.1695   -1.8158 H           1 N44       0.0998
     59 H25        -9.9434   44.5457   -0.5302 H           1 N44       0.1869
     60 H26       -13.8901   43.7167   -3.9020 H           1 N44       0.2082
@<TRIPOS>BOND
     1     3     1  ar
     2     4     1  ar
     3     5     2  ar
     4     6     2  ar
     5     7     3  ar
     6     8     4  ar
     7     9     5  ar
     8    12     6  ar
     9    14     7  ar
    10    14     8  ar
    11    15     9  ar
    12    10    11  ar
    13    16    10  ar
    14    11    17  ar
    15    15    12  ar
    16    12    21   1
    17    16    13  ar
    18    13    18  ar
    19    13    22   1
    20    24    14   1
    21    25    15   1
    22    26    16   1
    23    18    17  ar
    24    17    33   1
    25    18    34   1
    26    20    19   2
    27    27    20   1
    28    21    28  am
    29    21    31   2
    30    22    30  ar
    31    22    32  ar
    32    23    33   1
    33    34    23   1
    34    28    24   1
    35    29    25   1
    36    29    26   1
    37    27    29   1
    38     1    35   1
    39     2    36   1
    40     3    37   1
    41     4    38   1
    42     5    39   1
    43     6    40   1
    44     7    41   1
    45     8    42   1
    46     9    43   1
    47    10    44   1
    48    11    45   1
    49    19    46   1
    50    19    47   1
    51    20    48   1
    52    23    49   1
    53    23    50   1
    54    24    51   1
    55    24    52   1
    56    25    53   1
    57    25    54   1
    58    26    55   1
    59    26    56   1
    60    27    57   1
    61    27    58   1
    62    28    59   1
    63    29    60   1
@<TRIPOS>SUBSTRUCTURE
     1  N44      1

