@<TRIPOS>MOLECULE
3zsx_ligand_053
    60    63
SMALL
GAST_HUCK
****
This file was generated by PARSER (from files_GN.cpp)

@<TRIPOS>ATOM
      1 C1        -19.6730   40.6405   -7.2847 C.ar        1 N44      -0.0687
      2 C2        -19.6984   49.3603   -5.9978 C.ar        1 N44      -0.0630
      3 C3        -20.7199   41.2277   -6.5513 C.ar        1 N44      -0.0685
      4 C4        -19.1485   41.3021   -8.4093 C.ar        1 N44      -0.0685
      5 C5        -19.2929   49.1706   -4.6695 C.ar        1 N44      -0.0640
      6 C6        -20.4052   48.3468   -6.6647 C.ar        1 N44      -0.0483
      7 C7        -21.2441   42.4744   -6.9442 C.ar        1 N44      -0.0584
      8 C8        -19.6789   42.5433   -8.8074 C.ar        1 N44      -0.0584
      9 C9        -19.5884   47.9651   -4.0138 C.ar        1 N44      -0.0493
     10 C10       -21.4885   47.7341   -0.2242 C.ar        1 N44      -0.0712
     11 C11       -22.0422   48.4259    0.8661 C.ar        1 N44      -0.0449
     12 C12       -20.7219   47.1319   -6.0098 C.ar        1 N44       0.0564
     13 C13       -21.4487   45.6478    1.0721 C.ar        1 N44       0.0376
     14 C14       -20.7378   43.1419   -8.0855 C.ar        1 N44      -0.0211
     15 C15       -20.3139   46.9293   -4.6554 C.ar        1 N44       0.0219
     16 C16       -21.2055   46.3422   -0.1562 C.ar        1 N44      -0.0032
     17 C17       -22.2747   47.7300    2.0568 C.ar        1 N44       0.1200
     18 C18       -21.9787   46.3797    2.1628 C.ar        1 N44       0.1327
     19 C19       -24.7048   45.1076   -4.0838 C.2         1 N44      -0.1125
     20 C20       -23.6079   45.7559   -3.6788 C.2         1 N44      -0.0447
     21 C21       -21.4099   46.1866   -6.7420 C.2         1 N44       0.2021
     22 C22       -21.2080   44.2647    1.2551 C.2         1 N44       0.0515
     23 C23       -22.6739   47.1193    4.0847 C.3         1 N44       0.1864
     24 C24       -21.2894   44.4568   -8.4929 C.3         1 N44       0.0638
     25 C25       -20.5443   45.6680   -3.8823 C.3         1 N44       0.0086
     26 C26       -20.5962   45.7147   -1.3711 C.3         1 N44       0.0003
     27 C27       -22.7137   45.2367   -2.6559 C.3         1 N44      -0.0011
     28 N28       -20.7550   45.4740   -7.6447 N.am        1 N44      -0.2760
     29 N29       -21.3757   45.9271   -2.6426 N.4         1 N44       0.2715
     30 O30       -21.7404   43.3625    0.4008 O.co2       1 N44      -0.5668
     31 O31       -22.6132   46.0648   -6.5615 O.2         1 N44      -0.3884
     32 O32       -20.7211   43.7837    2.4222 O.co2       1 N44      -0.5668
     33 O33       -22.8019   48.2352    3.1855 O.3         1 N44      -0.2947
     34 O34       -22.3205   45.9124    3.3840 O.3         1 N44      -0.2890
     35 H1        -19.2881   39.7371   -6.9995 H           1 N44       0.0559
     36 H2        -19.4748   50.2336   -6.4809 H           1 N44       0.0572
     37 H3        -21.0969   40.7477   -5.7302 H           1 N44       0.0599
     38 H4        -18.3784   40.8836   -8.9368 H           1 N44       0.0599
     39 H5        -18.7700   49.9051   -4.1840 H           1 N44       0.0635
     40 H6        -20.6858   48.5083   -7.6370 H           1 N44       0.0651
     41 H7        -22.0014   42.8881   -6.3921 H           1 N44       0.0557
     42 H8        -19.2766   43.0181   -9.6181 H           1 N44       0.0557
     43 H9        -19.2622   47.8566   -3.0535 H           1 N44       0.0570
     44 H10       -21.3060   48.2616   -1.0807 H           1 N44       0.0445
     45 H11       -22.2711   49.4184    0.7938 H           1 N44       0.0514
     46 H12       -25.2877   45.4978   -4.7839 H           1 N44       0.0292
     47 H13       -24.9483   44.2260   -3.7022 H           1 N44       0.0292
     48 H14       -23.4056   46.6392   -4.0890 H           1 N44       0.0725
     49 H15       -23.6202   46.9720    4.6073 H           1 N44       0.0973
     50 H16       -21.9023   47.3432    4.8285 H           1 N44       0.0973
     51 H17       -22.3815   44.4189   -8.4836 H           1 N44       0.0683
     52 H18       -20.9934   44.7027   -9.5153 H           1 N44       0.0683
     53 H19       -19.5599   45.2578   -3.6385 H           1 N44       0.0995
     54 H20       -21.0069   44.9026   -4.5089 H           1 N44       0.0995
     55 H21       -20.4165   44.6480   -1.2491 H           1 N44       0.0966
     56 H22       -19.6068   46.1692   -1.4674 H           1 N44       0.0966
     57 H23       -22.5645   44.1615   -2.7968 H           1 N44       0.0998
     58 H24       -23.2307   45.3750   -1.7033 H           1 N44       0.0998
     59 H25       -19.8020   45.6404   -7.7305 H           1 N44       0.1869
     60 H26       -21.5943   46.9248   -2.6593 H           1 N44       0.2082
@<TRIPOS>BOND
     1     3     1  ar
     2     4     1  ar
     3     5     2  ar
     4     6     2  ar
     5     7     3  ar
     6     8     4  ar
     7     9     5  ar
     8    12     6  ar
     9    14     7  ar
    10    14     8  ar
    11    15     9  ar
    12    10    11  ar
    13    16    10  ar
    14    11    17  ar
    15    15    12  ar
    16    12    21   1
    17    16    13  ar
    18    13    18  ar
    19    13    22   1
    20    24    14   1
    21    25    15   1
    22    26    16   1
    23    18    17  ar
    24    17    33   1
    25    18    34   1
    26    20    19   2
    27    27    20   1
    28    21    28  am
    29    21    31   2
    30    22    30  ar
    31    22    32  ar
    32    23    33   1
    33    34    23   1
    34    28    24   1
    35    29    25   1
    36    29    26   1
    37    27    29   1
    38     1    35   1
    39     2    36   1
    40     3    37   1
    41     4    38   1
    42     5    39   1
    43     6    40   1
    44     7    41   1
    45     8    42   1
    46     9    43   1
    47    10    44   1
    48    11    45   1
    49    19    46   1
    50    19    47   1
    51    20    48   1
    52    23    49   1
    53    23    50   1
    54    24    51   1
    55    24    52   1
    56    25    53   1
    57    25    54   1
    58    26    55   1
    59    26    56   1
    60    27    57   1
    61    27    58   1
    62    28    59   1
    63    29    60   1
@<TRIPOS>SUBSTRUCTURE
     1  N44      1

