@<TRIPOS>MOLECULE
3zsx_ligand_095
    60    63
SMALL
GAST_HUCK
****
This file was generated by PARSER (from files_GN.cpp)

@<TRIPOS>ATOM
      1 C1        -15.8952   51.7386  -10.1529 C.ar        1 N44      -0.0687
      2 C2        -20.1997   48.7873   -4.0833 C.ar        1 N44      -0.0630
      3 C3        -16.7711   50.8507  -10.8008 C.ar        1 N44      -0.0685
      4 C4        -15.2844   51.3659   -8.9435 C.ar        1 N44      -0.0685
      5 C5        -19.6984   48.7766   -2.7774 C.ar        1 N44      -0.0640
      6 C6        -19.4113   48.2957   -5.1335 C.ar        1 N44      -0.0483
      7 C7        -17.0411   49.5890  -10.2361 C.ar        1 N44      -0.0584
      8 C8        -15.5549   50.1050   -8.3781 C.ar        1 N44      -0.0584
      9 C9        -18.4221   48.2533   -2.5286 C.ar        1 N44      -0.0493
     10 C10       -12.7261   46.1621   -2.5910 C.ar        1 N44      -0.0712
     11 C11       -11.5670   46.8902   -2.2705 C.ar        1 N44      -0.0449
     12 C12       -18.1083   47.7783   -4.9139 C.ar        1 N44       0.0564
     13 C13       -13.7005   46.6999   -0.4034 C.ar        1 N44       0.0376
     14 C14       -16.4402   49.2021   -9.0152 C.ar        1 N44      -0.0211
     15 C15       -17.6191   47.7140   -3.5615 C.ar        1 N44       0.0219
     16 C16       -13.8087   46.0582   -1.6742 C.ar        1 N44      -0.0032
     17 C17       -11.4917   47.5306   -1.0301 C.ar        1 N44       0.1200
     18 C18       -12.5324   47.4426   -0.1217 C.ar        1 N44       0.1327
     19 C19       -17.2466   43.4090   -0.3374 C.2         1 N44      -0.1125
     20 C20       -17.8413   44.4619   -0.9166 C.2         1 N44      -0.0447
     21 C21       -17.3855   47.3768   -6.0493 C.2         1 N44       0.2021
     22 C22       -14.6857   46.6057    0.6045 C.2         1 N44       0.0515
     23 C23       -10.8590   48.4774    0.7977 C.3         1 N44       0.1864
     24 C24       -16.7428   47.8882   -8.3881 C.3         1 N44       0.0638
     25 C25       -16.3024   47.1255   -3.1209 C.3         1 N44       0.0086
     26 C26       -15.0073   45.2518   -2.0626 C.3         1 N44       0.0003
     27 C27       -17.4764   45.0036   -2.2228 C.3         1 N44      -0.0011
     28 N28       -17.4446   48.1060   -7.1615 N.am        1 N44      -0.2760
     29 N29       -16.3248   45.9796   -2.1235 N.4         1 N44       0.2715
     30 O30       -14.9426   45.4059    1.1740 O.co2       1 N44      -0.5668
     31 O31       -16.7606   46.3252   -6.0400 O.2         1 N44      -0.3884
     32 O32       -15.0872   47.7101    1.2765 O.co2       1 N44      -0.5668
     33 O33       -10.4637   48.2611   -0.5668 O.3         1 N44      -0.2947
     34 O34       -12.2265   48.0934    1.0190 O.3         1 N44      -0.2890
     35 H1        -15.7031   52.6567  -10.5616 H           1 N44       0.0559
     36 H2        -21.1390   49.1451   -4.2683 H           1 N44       0.0572
     37 H3        -17.2162   51.1216  -11.6801 H           1 N44       0.0599
     38 H4        -14.6478   52.0116   -8.4714 H           1 N44       0.0599
     39 H5        -20.2694   49.1306   -2.0059 H           1 N44       0.0635
     40 H6        -19.8205   48.3054   -6.0708 H           1 N44       0.0651
     41 H7        -17.6874   48.9612  -10.7190 H           1 N44       0.0557
     42 H8        -15.1065   49.8522   -7.4935 H           1 N44       0.0557
     43 H9        -18.0885   48.2525   -1.5640 H           1 N44       0.0570
     44 H10       -12.7693   45.7054   -3.5040 H           1 N44       0.0445
     45 H11       -10.7841   46.9432   -2.9251 H           1 N44       0.0514
     46 H12       -17.5001   43.1407    0.5895 H           1 N44       0.0292
     47 H13       -16.5417   42.8902   -0.8135 H           1 N44       0.0292
     48 H14       -18.5878   44.9039   -0.4223 H           1 N44       0.0725
     49 H15       -10.7371   49.5318    1.0500 H           1 N44       0.0973
     50 H16       -10.2106   47.8894    1.4518 H           1 N44       0.0973
     51 H17       -15.8056   47.3483   -8.2289 H           1 N44       0.0683
     52 H18       -17.3714   47.2752   -9.0396 H           1 N44       0.0683
     53 H19       -15.7641   47.9416   -2.6350 H           1 N44       0.0995
     54 H20       -15.6910   46.8557   -3.9789 H           1 N44       0.0995
     55 H21       -15.0688   44.4320   -1.3370 H           1 N44       0.0966
     56 H22       -14.8452   44.7619   -3.0314 H           1 N44       0.0966
     57 H23       -18.3766   45.4867   -2.6023 H           1 N44       0.0998
     58 H24       -17.2578   44.1957   -2.9315 H           1 N44       0.0998
     59 H25       -18.0005   48.8988   -7.1342 H           1 N44       0.1869
     60 H26       -16.4510   46.4259   -1.2122 H           1 N44       0.2082
@<TRIPOS>BOND
     1     3     1  ar
     2     4     1  ar
     3     5     2  ar
     4     6     2  ar
     5     7     3  ar
     6     8     4  ar
     7     9     5  ar
     8    12     6  ar
     9    14     7  ar
    10    14     8  ar
    11    15     9  ar
    12    10    11  ar
    13    16    10  ar
    14    11    17  ar
    15    15    12  ar
    16    12    21   1
    17    16    13  ar
    18    13    18  ar
    19    13    22   1
    20    24    14   1
    21    25    15   1
    22    26    16   1
    23    18    17  ar
    24    17    33   1
    25    18    34   1
    26    20    19   2
    27    27    20   1
    28    21    28  am
    29    21    31   2
    30    22    30  ar
    31    22    32  ar
    32    23    33   1
    33    34    23   1
    34    28    24   1
    35    29    25   1
    36    29    26   1
    37    27    29   1
    38     1    35   1
    39     2    36   1
    40     3    37   1
    41     4    38   1
    42     5    39   1
    43     6    40   1
    44     7    41   1
    45     8    42   1
    46     9    43   1
    47    10    44   1
    48    11    45   1
    49    19    46   1
    50    19    47   1
    51    20    48   1
    52    23    49   1
    53    23    50   1
    54    24    51   1
    55    24    52   1
    56    25    53   1
    57    25    54   1
    58    26    55   1
    59    26    56   1
    60    27    57   1
    61    27    58   1
    62    28    59   1
    63    29    60   1
@<TRIPOS>SUBSTRUCTURE
     1  N44      1

