@<TRIPOS>MOLECULE
3zsx_ligand_064
    60    63
SMALL
GAST_HUCK
****
This file was generated by PARSER (from files_GN.cpp)

@<TRIPOS>ATOM
      1 C1        -20.2775   46.3103   -1.2817 C.ar        1 N44      -0.0687
      2 C2        -11.8328   44.8206    1.5002 C.ar        1 N44      -0.0630
      3 C3        -19.6766   47.2959   -2.0837 C.ar        1 N44      -0.0685
      4 C4        -19.5437   45.1715   -0.9051 C.ar        1 N44      -0.0685
      5 C5        -11.8692   45.9728    2.2986 C.ar        1 N44      -0.0640
      6 C6        -12.5292   44.7933    0.2798 C.ar        1 N44      -0.0483
      7 C7        -18.3421   47.1464   -2.5054 C.ar        1 N44      -0.0584
      8 C8        -18.2060   45.0275   -1.3143 C.ar        1 N44      -0.0584
      9 C9        -12.5929   47.0970    1.8707 C.ar        1 N44      -0.0493
     10 C10       -11.5602   52.1462    0.3484 C.ar        1 N44      -0.0712
     11 C11       -10.7223   53.2735    0.2950 C.ar        1 N44      -0.0449
     12 C12       -13.2960   45.9066   -0.1506 C.ar        1 N44       0.0564
     13 C13       -13.0982   53.1716   -1.2591 C.ar        1 N44       0.0376
     14 C14       -17.5851   46.0156   -2.1162 C.ar        1 N44      -0.0211
     15 C15       -13.2980   47.0959    0.6414 C.ar        1 N44       0.0219
     16 C16       -12.7323   52.0457   -0.4493 C.ar        1 N44      -0.0032
     17 C17       -11.0674   54.3332   -0.5484 C.ar        1 N44       0.1200
     18 C18       -12.2337   54.2925   -1.2940 C.ar        1 N44       0.1327
     19 C19        -9.7560   47.7275   -0.8586 C.2         1 N44      -0.1125
     20 C20       -10.6026   48.6093   -0.3106 C.2         1 N44      -0.0447
     21 C21       -14.0019   45.7860   -1.3466 C.2         1 N44       0.2021
     22 C22       -14.3041   53.2545   -1.9947 C.2         1 N44       0.0515
     23 C23       -11.2757   56.2235   -1.5859 C.3         1 N44       0.1864
     24 C24       -16.1624   45.8569   -2.5118 C.3         1 N44       0.0638
     25 C25       -13.8959   48.4017    0.2159 C.3         1 N44       0.0086
     26 C26       -13.5695   50.8020   -0.3483 C.3         1 N44       0.0003
     27 C27       -11.7889   49.1162   -0.9857 C.3         1 N44      -0.0011
     28 N28       -15.3163   45.9738   -1.3613 N.am        1 N44      -0.2760
     29 N29       -12.8831   49.4988   -0.0128 N.4         1 N44       0.2715
     30 O30       -14.5799   52.3667   -2.9782 O.co2       1 N44      -0.5668
     31 O31       -13.4070   45.4191   -2.3530 O.2         1 N44      -0.3884
     32 O32       -15.0326   54.3932   -1.9920 O.co2       1 N44      -0.5668
     33 O33       -10.3915   55.4819   -0.7280 O.3         1 N44      -0.2947
     34 O34       -12.3711   55.4117   -2.0384 O.3         1 N44      -0.2890
     35 H1        -21.2467   46.4178   -0.9799 H           1 N44       0.0559
     36 H2        -11.2941   44.0068    1.8045 H           1 N44       0.0572
     37 H3        -20.2100   48.1214   -2.3638 H           1 N44       0.0599
     38 H4        -19.9828   44.4495   -0.3299 H           1 N44       0.0599
     39 H5        -11.3554   45.9987    3.1849 H           1 N44       0.0635
     40 H6        -12.4831   43.9353   -0.2783 H           1 N44       0.0651
     41 H7        -17.9206   47.8766   -3.0858 H           1 N44       0.0557
     42 H8        -17.6837   44.1969   -1.0202 H           1 N44       0.0557
     43 H9        -12.5712   47.9395    2.4540 H           1 N44       0.0570
     44 H10       -11.2947   51.3973    0.9895 H           1 N44       0.0445
     45 H11        -9.8743   53.3192    0.8624 H           1 N44       0.0514
     46 H12        -8.9374   47.4570   -0.3592 H           1 N44       0.0292
     47 H13        -9.9203   47.3411   -1.7617 H           1 N44       0.0292
     48 H14       -10.3657   48.9861    0.5803 H           1 N44       0.0725
     49 H15       -10.7172   56.5922   -2.4486 H           1 N44       0.0973
     50 H16       -11.6693   57.0840   -1.0391 H           1 N44       0.0973
     51 H17       -15.8636   46.6155   -3.2410 H           1 N44       0.0683
     52 H18       -16.0299   44.8752   -2.9773 H           1 N44       0.0683
     53 H19       -14.5978   48.7017    1.0020 H           1 N44       0.0995
     54 H20       -14.4853   48.2923   -0.6957 H           1 N44       0.0995
     55 H21       -14.0975   50.6384   -1.2885 H           1 N44       0.0966
     56 H22       -14.3266   51.0171    0.4138 H           1 N44       0.0966
     57 H23       -12.1599   48.3796   -1.7066 H           1 N44       0.0998
     58 H24       -11.4564   49.9688   -1.5775 H           1 N44       0.0998
     59 H25       -15.7494   46.2070   -0.5219 H           1 N44       0.1869
     60 H26       -12.4370   49.6504    0.8970 H           1 N44       0.2082
@<TRIPOS>BOND
     1     3     1  ar
     2     4     1  ar
     3     5     2  ar
     4     6     2  ar
     5     7     3  ar
     6     8     4  ar
     7     9     5  ar
     8    12     6  ar
     9    14     7  ar
    10    14     8  ar
    11    15     9  ar
    12    10    11  ar
    13    16    10  ar
    14    11    17  ar
    15    15    12  ar
    16    12    21   1
    17    16    13  ar
    18    13    18  ar
    19    13    22   1
    20    24    14   1
    21    25    15   1
    22    26    16   1
    23    18    17  ar
    24    17    33   1
    25    18    34   1
    26    20    19   2
    27    27    20   1
    28    21    28  am
    29    21    31   2
    30    22    30  ar
    31    22    32  ar
    32    23    33   1
    33    34    23   1
    34    28    24   1
    35    29    25   1
    36    29    26   1
    37    27    29   1
    38     1    35   1
    39     2    36   1
    40     3    37   1
    41     4    38   1
    42     5    39   1
    43     6    40   1
    44     7    41   1
    45     8    42   1
    46     9    43   1
    47    10    44   1
    48    11    45   1
    49    19    46   1
    50    19    47   1
    51    20    48   1
    52    23    49   1
    53    23    50   1
    54    24    51   1
    55    24    52   1
    56    25    53   1
    57    25    54   1
    58    26    55   1
    59    26    56   1
    60    27    57   1
    61    27    58   1
    62    28    59   1
    63    29    60   1
@<TRIPOS>SUBSTRUCTURE
     1  N44      1

