@<TRIPOS>MOLECULE
3zsx_ligand_013
    60    63
SMALL
GAST_HUCK
****
This file was generated by PARSER (from files_GN.cpp)

@<TRIPOS>ATOM
      1 C1        -14.4826   44.5126   -3.8433 C.ar        1 N44      -0.0687
      2 C2        -23.1023   45.3596   -3.5969 C.ar        1 N44      -0.0630
      3 C3        -15.2949   44.2436   -4.9611 C.ar        1 N44      -0.0685
      4 C4        -14.7613   45.6230   -3.0251 C.ar        1 N44      -0.0685
      5 C5        -23.4887   44.1547   -4.1913 C.ar        1 N44      -0.0640
      6 C6        -21.9425   46.0132   -4.0370 C.ar        1 N44      -0.0483
      7 C7        -16.3880   45.0791   -5.2526 C.ar        1 N44      -0.0584
      8 C8        -15.8479   46.4627   -3.3243 C.ar        1 N44      -0.0584
      9 C9        -22.7235   43.6113   -5.2314 C.ar        1 N44      -0.0493
     10 C10       -19.9812   39.8576   -9.4807 C.ar        1 N44      -0.0712
     11 C11       -20.2123   38.5934  -10.0404 C.ar        1 N44      -0.0449
     12 C12       -21.1620   45.4845   -5.0962 C.ar        1 N44       0.0564
     13 C13       -20.0996   38.9256   -7.2083 C.ar        1 N44       0.0376
     14 C14       -16.6778   46.2009   -4.4409 C.ar        1 N44      -0.0211
     15 C15       -21.5615   44.2582   -5.7210 C.ar        1 N44       0.0219
     16 C16       -19.9587   40.0619   -8.0744 C.ar        1 N44      -0.0032
     17 C17       -20.3987   37.5030   -9.1839 C.ar        1 N44       0.1200
     18 C18       -20.3254   37.6573   -7.8064 C.ar        1 N44       0.1327
     19 C19       -21.0317   42.9947  -10.2971 C.2         1 N44      -0.1125
     20 C20       -21.9928   42.3057   -9.6679 C.2         1 N44      -0.0447
     21 C21       -20.0150   46.1774   -5.4634 C.2         1 N44       0.2021
     22 C22       -19.9972   38.9709   -5.7911 C.2         1 N44       0.0515
     23 C23       -20.7490   35.5724   -8.2838 C.3         1 N44       0.1864
     24 C24       -17.8189   47.0871   -4.7821 C.3         1 N44       0.0638
     25 C25       -20.7208   43.6467   -6.8078 C.3         1 N44       0.0086
     26 C26       -19.7444   41.4651   -7.5982 C.3         1 N44       0.0003
     27 C27       -22.1410   42.0969   -8.2314 C.3         1 N44      -0.0011
     28 N28       -19.0607   46.4089   -4.5646 N.am        1 N44      -0.2760
     29 N29       -20.9990   42.2292   -7.2528 N.4         1 N44       0.2715
     30 O30       -19.5318   37.9135   -5.0871 O.co2       1 N44      -0.5668
     31 O31       -19.9205   46.5720   -6.6206 O.2         1 N44      -0.3884
     32 O32       -20.3133   40.0618   -5.0634 O.co2       1 N44      -0.5668
     33 O33       -20.6454   36.2343   -9.5545 O.3         1 N44      -0.2947
     34 O34       -20.5282   36.4761   -7.1853 O.3         1 N44      -0.2890
     35 H1        -13.6906   43.9009   -3.6248 H           1 N44       0.0559
     36 H2        -23.6698   45.7674   -2.8461 H           1 N44       0.0572
     37 H3        -15.0878   43.4423   -5.5600 H           1 N44       0.0599
     38 H4        -14.1707   45.8166   -2.2135 H           1 N44       0.0599
     39 H5        -24.3348   43.6735   -3.8625 H           1 N44       0.0635
     40 H6        -21.6815   46.8969   -3.5851 H           1 N44       0.0651
     41 H7        -16.9671   44.8683   -6.0687 H           1 N44       0.0557
     42 H8        -16.0324   47.2636   -2.7158 H           1 N44       0.0557
     43 H9        -23.0347   42.7182   -5.6181 H           1 N44       0.0570
     44 H10       -19.8316   40.6426  -10.1211 H           1 N44       0.0445
     45 H11       -20.2458   38.4699  -11.0524 H           1 N44       0.0514
     46 H12       -21.0668   43.1072  -11.2879 H           1 N44       0.0292
     47 H13       -20.2815   43.4247   -9.8080 H           1 N44       0.0292
     48 H14       -22.7181   41.9328  -10.2451 H           1 N44       0.0725
     49 H15       -20.0117   34.7710   -8.2361 H           1 N44       0.0973
     50 H16       -21.7421   35.1307   -8.1889 H           1 N44       0.0973
     51 H17       -17.6985   47.4368   -5.8117 H           1 N44       0.0683
     52 H18       -17.8317   47.9762   -4.1465 H           1 N44       0.0683
     53 H19       -19.6867   43.7068   -6.4521 H           1 N44       0.0995
     54 H20       -20.7785   44.3141   -7.6701 H           1 N44       0.0995
     55 H21       -19.1661   42.0410   -8.3297 H           1 N44       0.0966
     56 H22       -19.1006   41.4082   -6.7181 H           1 N44       0.0966
     57 H23       -22.5198   41.0820   -8.1008 H           1 N44       0.0998
     58 H24       -22.9572   42.7545   -7.9280 H           1 N44       0.0998
     59 H25       -19.2136   46.0735   -3.6637 H           1 N44       0.1869
     60 H26       -21.3375   41.7530   -6.4131 H           1 N44       0.2082
@<TRIPOS>BOND
     1     3     1  ar
     2     4     1  ar
     3     5     2  ar
     4     6     2  ar
     5     7     3  ar
     6     8     4  ar
     7     9     5  ar
     8    12     6  ar
     9    14     7  ar
    10    14     8  ar
    11    15     9  ar
    12    10    11  ar
    13    16    10  ar
    14    11    17  ar
    15    15    12  ar
    16    12    21   1
    17    16    13  ar
    18    13    18  ar
    19    13    22   1
    20    24    14   1
    21    25    15   1
    22    26    16   1
    23    18    17  ar
    24    17    33   1
    25    18    34   1
    26    20    19   2
    27    27    20   1
    28    21    28  am
    29    21    31   2
    30    22    30  ar
    31    22    32  ar
    32    23    33   1
    33    34    23   1
    34    28    24   1
    35    29    25   1
    36    29    26   1
    37    27    29   1
    38     1    35   1
    39     2    36   1
    40     3    37   1
    41     4    38   1
    42     5    39   1
    43     6    40   1
    44     7    41   1
    45     8    42   1
    46     9    43   1
    47    10    44   1
    48    11    45   1
    49    19    46   1
    50    19    47   1
    51    20    48   1
    52    23    49   1
    53    23    50   1
    54    24    51   1
    55    24    52   1
    56    25    53   1
    57    25    54   1
    58    26    55   1
    59    26    56   1
    60    27    57   1
    61    27    58   1
    62    28    59   1
    63    29    60   1
@<TRIPOS>SUBSTRUCTURE
     1  N44      1

