@<TRIPOS>MOLECULE
3zsx_ligand_024
    60    63
SMALL
GAST_HUCK
****
This file was generated by PARSER (from files_GN.cpp)

@<TRIPOS>ATOM
      1 C1         -7.1114   45.1618    7.0080 C.ar        1 N44      -0.0687
      2 C2         -7.7658   40.2014    0.1633 C.ar        1 N44      -0.0630
      3 C3         -6.1671   44.3070    6.4079 C.ar        1 N44      -0.0685
      4 C4         -7.8333   46.0769    6.2205 C.ar        1 N44      -0.0685
      5 C5         -9.0575   40.2880   -0.3725 C.ar        1 N44      -0.0640
      6 C6         -7.2886   41.2217    0.9983 C.ar        1 N44      -0.0483
      7 C7         -5.9400   44.3771    5.0184 C.ar        1 N44      -0.0584
      8 C8         -7.6113   46.1384    4.8323 C.ar        1 N44      -0.0584
      9 C9         -9.8586   41.4047   -0.0912 C.ar        1 N44      -0.0493
     10 C10       -13.4565   44.2518   -2.5522 C.ar        1 N44      -0.0712
     11 C11       -14.2284   44.9351   -3.5073 C.ar        1 N44      -0.0449
     12 C12        -8.0914   42.3546    1.2816 C.ar        1 N44       0.0564
     13 C13       -14.1449   45.8461   -0.8098 C.ar        1 N44       0.0376
     14 C14        -6.6487   45.3049    4.2163 C.ar        1 N44      -0.0211
     15 C15        -9.3872   42.4864    0.6901 C.ar        1 N44       0.0219
     16 C16       -13.3829   44.6954   -1.2016 C.ar        1 N44      -0.0032
     17 C17       -14.9307   46.0774   -3.1147 C.ar        1 N44       0.1200
     18 C18       -14.9021   46.5171   -1.8021 C.ar        1 N44       0.1327
     19 C19        -7.9530   43.7621   -1.8178 C.2         1 N44      -0.1125
     20 C20        -8.9309   44.6364   -1.4977 C.2         1 N44      -0.0447
     21 C21        -7.6264   43.2140    2.2569 C.2         1 N44       0.2021
     22 C22       -14.2224   46.3121    0.5248 C.2         1 N44       0.0515
     23 C23       -16.3610   47.6719   -2.9220 C.3         1 N44       0.1864
     24 C24        -6.4075   45.3507    2.7460 C.3         1 N44       0.0638
     25 C25       -10.2864   43.6686    0.9321 C.3         1 N44       0.0086
     26 C26       -12.4875   43.9288   -0.2710 C.3         1 N44       0.0003
     27 C27       -10.3477   44.3101   -1.5498 C.3         1 N44      -0.0011
     28 N28        -6.9553   44.3100    1.9179 N.am        1 N44      -0.2760
     29 N29       -11.0356   44.3247   -0.2141 N.4         1 N44       0.2715
     30 O30       -14.2236   47.6409    0.7918 O.co2       1 N44      -0.5668
     31 O31        -7.7919   42.8716    3.4245 O.2         1 N44      -0.3884
     32 O32       -14.7312   45.5083    1.4843 O.co2       1 N44      -0.5668
     33 O33       -15.6926   46.8577   -3.9010 O.3         1 N44      -0.2947
     34 O34       -15.6849   47.6080   -1.6536 O.3         1 N44      -0.2890
     35 H1         -7.2834   45.1057    8.0161 H           1 N44       0.0559
     36 H2         -7.1808   39.3910   -0.0431 H           1 N44       0.0572
     37 H3         -5.6620   43.6203    6.9790 H           1 N44       0.0599
     38 H4         -8.5273   46.6853    6.6528 H           1 N44       0.0599
     39 H5         -9.4162   39.5347   -0.9622 H           1 N44       0.0635
     40 H6         -6.3592   41.1169    1.4191 H           1 N44       0.0651
     41 H7         -5.2491   43.7440    4.6011 H           1 N44       0.0557
     42 H8         -8.1604   46.7869    4.2717 H           1 N44       0.0557
     43 H9        -10.7954   41.4234   -0.4894 H           1 N44       0.0570
     44 H10       -12.9331   43.4270   -2.8539 H           1 N44       0.0445
     45 H11       -14.2687   44.6069   -4.4712 H           1 N44       0.0514
     46 H12        -6.9971   44.0311   -1.7278 H           1 N44       0.0292
     47 H13        -8.1656   42.8355   -2.1090 H           1 N44       0.0292
     48 H14        -8.6609   45.5427   -1.1850 H           1 N44       0.0725
     49 H15       -17.3903   47.3176   -2.8066 H           1 N44       0.0973
     50 H16       -16.3925   48.7096   -3.2690 H           1 N44       0.0973
     51 H17        -5.3263   45.3741    2.5789 H           1 N44       0.0683
     52 H18        -6.7975   46.2927    2.3523 H           1 N44       0.0683
     53 H19        -9.7086   44.4812    1.3682 H           1 N44       0.0995
     54 H20       -10.9763   43.3713    1.7289 H           1 N44       0.0995
     55 H21       -12.5692   42.8640   -0.5047 H           1 N44       0.0966
     56 H22       -12.8884   44.0213    0.7340 H           1 N44       0.0966
     57 H23       -10.5166   43.3434   -2.0440 H           1 N44       0.0998
     58 H24       -10.7905   45.0691   -2.1961 H           1 N44       0.0998
     59 H25        -6.8329   44.4542    0.9611 H           1 N44       0.1869
     60 H26       -11.0689   45.3197    0.0279 H           1 N44       0.2082
@<TRIPOS>BOND
     1     3     1  ar
     2     4     1  ar
     3     5     2  ar
     4     6     2  ar
     5     7     3  ar
     6     8     4  ar
     7     9     5  ar
     8    12     6  ar
     9    14     7  ar
    10    14     8  ar
    11    15     9  ar
    12    10    11  ar
    13    16    10  ar
    14    11    17  ar
    15    15    12  ar
    16    12    21   1
    17    16    13  ar
    18    13    18  ar
    19    13    22   1
    20    24    14   1
    21    25    15   1
    22    26    16   1
    23    18    17  ar
    24    17    33   1
    25    18    34   1
    26    20    19   2
    27    27    20   1
    28    21    28  am
    29    21    31   2
    30    22    30  ar
    31    22    32  ar
    32    23    33   1
    33    34    23   1
    34    28    24   1
    35    29    25   1
    36    29    26   1
    37    27    29   1
    38     1    35   1
    39     2    36   1
    40     3    37   1
    41     4    38   1
    42     5    39   1
    43     6    40   1
    44     7    41   1
    45     8    42   1
    46     9    43   1
    47    10    44   1
    48    11    45   1
    49    19    46   1
    50    19    47   1
    51    20    48   1
    52    23    49   1
    53    23    50   1
    54    24    51   1
    55    24    52   1
    56    25    53   1
    57    25    54   1
    58    26    55   1
    59    26    56   1
    60    27    57   1
    61    27    58   1
    62    28    59   1
    63    29    60   1
@<TRIPOS>SUBSTRUCTURE
     1  N44      1

