@<TRIPOS>MOLECULE
3zsx_ligand_002
    60    63
SMALL
GAST_HUCK
****
This file was generated by PARSER (from files_GN.cpp)

@<TRIPOS>ATOM
      1 C1        -14.8412   53.2899   -2.6609 C.ar        1 N44      -0.0687
      2 C2        -21.1444   48.0298   -1.1528 C.ar        1 N44      -0.0630
      3 C3        -15.0500   53.2594   -4.0507 C.ar        1 N44      -0.0685
      4 C4        -15.1471   52.1589   -1.8833 C.ar        1 N44      -0.0685
      5 C5        -20.6951   46.8060   -0.6487 C.ar        1 N44      -0.0640
      6 C6        -20.4406   48.6559   -2.1951 C.ar        1 N44      -0.0483
      7 C7        -15.5775   52.1040   -4.6588 C.ar        1 N44      -0.0584
      8 C8        -15.6676   51.0039   -2.4917 C.ar        1 N44      -0.0584
      9 C9        -19.5595   46.1968   -1.2015 C.ar        1 N44      -0.0493
     10 C10       -13.1605   45.3892   -2.9767 C.ar        1 N44      -0.0712
     11 C11       -11.9218   44.7963   -2.6817 C.ar        1 N44      -0.0449
     12 C12       -19.2800   48.0722   -2.7652 C.ar        1 N44       0.0564
     13 C13       -13.6041   45.7468   -0.5903 C.ar        1 N44       0.0376
     14 C14       -15.9132   50.9625   -3.8886 C.ar        1 N44      -0.0211
     15 C15       -18.8410   46.7980   -2.2687 C.ar        1 N44       0.0219
     16 C16       -14.0206   45.8724   -1.9550 C.ar        1 N44      -0.0032
     17 C17       -11.5373   44.6749   -1.3419 C.ar        1 N44       0.1200
     18 C18       -12.3620   45.1240   -0.3189 C.ar        1 N44       0.1327
     19 C19       -16.1410   43.4950   -4.2027 C.2         1 N44      -0.1125
     20 C20       -16.4390   43.2113   -2.9253 C.2         1 N44      -0.0447
     21 C21       -18.6186   48.7849   -3.7706 C.2         1 N44       0.2021
     22 C22       -14.3776   46.2155    0.4953 C.2         1 N44       0.0515
     23 C23       -10.6338   44.1175    0.5346 C.3         1 N44       0.1864
     24 C24       -16.4714   49.7548   -4.5581 C.3         1 N44       0.0638
     25 C25       -17.7922   45.9517   -2.9132 C.3         1 N44       0.0086
     26 C26       -15.3554   46.4285   -2.3548 C.3         1 N44       0.0003
     27 C27       -16.4266   44.1425   -1.8072 C.3         1 N44      -0.0011
     28 N28       -17.3089   48.9631   -3.6995 N.am        1 N44      -0.2760
     29 N29       -16.5953   45.6262   -2.0325 N.4         1 N44       0.2715
     30 O30       -14.4781   47.5515    0.7044 O.co2       1 N44      -0.5668
     31 O31       -19.2755   49.3761   -4.6267 O.2         1 N44      -0.3884
     32 O32       -14.6170   45.4221    1.5603 O.co2       1 N44      -0.5668
     33 O33       -10.3786   44.1674   -0.8778 O.3         1 N44      -0.2947
     34 O34       -11.7843   44.9077    0.8835 O.3         1 N44      -0.2890
     35 H1        -14.4615   54.1297   -2.2178 H           1 N44       0.0559
     36 H2        -21.9788   48.4696   -0.7589 H           1 N44       0.0572
     37 H3        -14.8175   54.0772   -4.6202 H           1 N44       0.0599
     38 H4        -14.9871   52.1776   -0.8735 H           1 N44       0.0599
     39 H5        -21.2082   46.3417    0.1050 H           1 N44       0.0635
     40 H6        -20.7924   49.5597   -2.5292 H           1 N44       0.0651
     41 H7        -15.7175   52.1047   -5.6732 H           1 N44       0.0557
     42 H8        -15.8686   50.1917   -1.9035 H           1 N44       0.0557
     43 H9        -19.2852   45.2801   -0.8443 H           1 N44       0.0570
     44 H10       -13.4356   45.4477   -3.9590 H           1 N44       0.0445
     45 H11       -11.3136   44.4566   -3.4299 H           1 N44       0.0514
     46 H12       -16.2328   42.7946   -4.9025 H           1 N44       0.0292
     47 H13       -15.8600   44.3985   -4.4794 H           1 N44       0.0292
     48 H14       -16.7162   42.2756   -2.7303 H           1 N44       0.0725
     49 H15        -9.7647   44.4861    1.0785 H           1 N44       0.0973
     50 H16       -10.8040   43.0788    0.8276 H           1 N44       0.0973
     51 H17       -15.6392   49.1245   -4.8744 H           1 N44       0.0683
     52 H18       -17.0130   50.0455   -5.4632 H           1 N44       0.0683
     53 H19       -17.4774   46.3775   -3.8634 H           1 N44       0.0995
     54 H20       -18.3168   45.0406   -3.2189 H           1 N44       0.0995
     55 H21       -15.3303   46.6617   -3.4203 H           1 N44       0.0966
     56 H22       -15.4636   47.3950   -1.8621 H           1 N44       0.0966
     57 H23       -15.5213   43.9334   -1.2365 H           1 N44       0.0998
     58 H24       -17.2396   43.8434   -1.1402 H           1 N44       0.0998
     59 H25       -16.8635   48.5420   -2.9501 H           1 N44       0.1869
     60 H26       -16.8502   45.9662   -1.1044 H           1 N44       0.2082
@<TRIPOS>BOND
     1     3     1  ar
     2     4     1  ar
     3     5     2  ar
     4     6     2  ar
     5     7     3  ar
     6     8     4  ar
     7     9     5  ar
     8    12     6  ar
     9    14     7  ar
    10    14     8  ar
    11    15     9  ar
    12    10    11  ar
    13    16    10  ar
    14    11    17  ar
    15    15    12  ar
    16    12    21   1
    17    16    13  ar
    18    13    18  ar
    19    13    22   1
    20    24    14   1
    21    25    15   1
    22    26    16   1
    23    18    17  ar
    24    17    33   1
    25    18    34   1
    26    20    19   2
    27    27    20   1
    28    21    28  am
    29    21    31   2
    30    22    30  ar
    31    22    32  ar
    32    23    33   1
    33    34    23   1
    34    28    24   1
    35    29    25   1
    36    29    26   1
    37    27    29   1
    38     1    35   1
    39     2    36   1
    40     3    37   1
    41     4    38   1
    42     5    39   1
    43     6    40   1
    44     7    41   1
    45     8    42   1
    46     9    43   1
    47    10    44   1
    48    11    45   1
    49    19    46   1
    50    19    47   1
    51    20    48   1
    52    23    49   1
    53    23    50   1
    54    24    51   1
    55    24    52   1
    56    25    53   1
    57    25    54   1
    58    26    55   1
    59    26    56   1
    60    27    57   1
    61    27    58   1
    62    28    59   1
    63    29    60   1
@<TRIPOS>SUBSTRUCTURE
     1  N44      1

