@<TRIPOS>MOLECULE
3zsx_ligand_056
    60    63
SMALL
GAST_HUCK
****
This file was generated by PARSER (from files_GN.cpp)

@<TRIPOS>ATOM
      1 C1        -11.1499   40.9772   -1.7133 C.ar        1 N44      -0.0687
      2 C2         -7.8395   47.6611   -0.9492 C.ar        1 N44      -0.0630
      3 C3        -12.4802   41.2795   -1.3743 C.ar        1 N44      -0.0685
      4 C4        -10.3109   41.9807   -2.2315 C.ar        1 N44      -0.0685
      5 C5         -8.0154   49.0241   -0.6695 C.ar        1 N44      -0.0640
      6 C6         -8.9593   46.8102   -1.0108 C.ar        1 N44      -0.0483
      7 C7        -12.9776   42.5846   -1.5614 C.ar        1 N44      -0.0584
      8 C8        -10.8086   43.2845   -2.4154 C.ar        1 N44      -0.0584
      9 C9         -9.3076   49.5344   -0.4593 C.ar        1 N44      -0.0493
     10 C10       -15.0004   47.6386   -0.7794 C.ar        1 N44      -0.0712
     11 C11       -15.7752   47.1879   -1.8657 C.ar        1 N44      -0.0449
     12 C12       -10.2701   47.3112   -0.8063 C.ar        1 N44       0.0564
     13 C13       -15.4841   49.9692   -1.3741 C.ar        1 N44       0.0376
     14 C14       -12.1487   43.5998   -2.0904 C.ar        1 N44      -0.0211
     15 C15       -10.4520   48.7009   -0.5311 C.ar        1 N44       0.0219
     16 C16       -14.8514   49.0267   -0.5038 C.ar        1 N44      -0.0032
     17 C17       -16.3897   48.1311   -2.7006 C.ar        1 N44       0.1200
     18 C18       -16.2512   49.4894   -2.4599 C.ar        1 N44       0.1327
     19 C19       -11.1754   47.3253    3.7551 C.2         1 N44      -0.1125
     20 C20       -11.2106   47.8267    2.5097 C.2         1 N44      -0.0447
     21 C21       -11.3190   46.4081   -0.8881 C.2         1 N44       0.2021
     22 C22       -15.3741   51.3582   -1.2065 C.2         1 N44       0.0515
     23 C23       -17.2795   49.2012   -4.3412 C.3         1 N44       0.1864
     24 C24       -12.6730   44.9676   -2.3595 C.3         1 N44       0.0638
     25 C25       -11.8041   49.3224   -0.3918 C.3         1 N44       0.0086
     26 C26       -14.0377   49.4103    0.6937 C.3         1 N44       0.0003
     27 C27       -12.0099   48.9825    2.1102 C.3         1 N44      -0.0011
     28 N28       -11.7262   46.0008   -2.0866 N.am        1 N44      -0.2760
     29 N29       -12.6540   48.8151    0.7471 N.4         1 N44       0.2715
     30 O30       -14.4997   52.0343   -1.9851 O.co2       1 N44      -0.5668
     31 O31       -11.7583   45.9379    0.1566 O.2         1 N44      -0.3884
     32 O32       -16.4561   52.0386   -0.7547 O.co2       1 N44      -0.5668
     33 O33       -17.1509   47.8827   -3.7810 O.3         1 N44      -0.2947
     34 O34       -16.9130   50.2137   -3.3875 O.3         1 N44      -0.2890
     35 H1        -10.7896   40.0299   -1.5939 H           1 N44       0.0559
     36 H2         -6.9047   47.2854   -1.1152 H           1 N44       0.0572
     37 H3        -13.0861   40.5507   -0.9961 H           1 N44       0.0599
     38 H4         -9.3450   41.7626   -2.4783 H           1 N44       0.0599
     39 H5         -7.2017   49.6417   -0.6194 H           1 N44       0.0635
     40 H6         -8.8027   45.8160   -1.2026 H           1 N44       0.0651
     41 H7        -13.9526   42.7794   -1.3273 H           1 N44       0.0557
     42 H8        -10.1892   44.0042   -2.7911 H           1 N44       0.0557
     43 H9         -9.4002   50.5369   -0.2668 H           1 N44       0.0570
     44 H10       -14.5646   46.9422   -0.1744 H           1 N44       0.0445
     45 H11       -15.8878   46.1892   -2.0494 H           1 N44       0.0514
     46 H12       -10.5826   46.5523    3.9633 H           1 N44       0.0292
     47 H13       -11.7124   47.7260    4.4893 H           1 N44       0.0292
     48 H14       -10.6019   47.4182    1.8370 H           1 N44       0.0725
     49 H15       -18.3098   49.3592   -4.6630 H           1 N44       0.0973
     50 H16       -16.6308   49.2837   -5.2186 H           1 N44       0.0973
     51 H17       -13.5960   45.1677   -1.8064 H           1 N44       0.0683
     52 H18       -12.9156   45.0269   -3.4222 H           1 N44       0.0683
     53 H19       -12.3027   49.1337   -1.3454 H           1 N44       0.0995
     54 H20       -11.7239   50.4159   -0.3145 H           1 N44       0.0995
     55 H21       -14.6132   49.0627    1.5552 H           1 N44       0.0966
     56 H22       -13.9673   50.4996    0.7983 H           1 N44       0.0966
     57 H23       -11.3632   49.8634    2.1269 H           1 N44       0.0998
     58 H24       -12.7734   49.1550    2.8795 H           1 N44       0.0998
     59 H25       -11.3177   46.4349   -2.8585 H           1 N44       0.1869
     60 H26       -12.7749   47.8050    0.6001 H           1 N44       0.2082
@<TRIPOS>BOND
     1     3     1  ar
     2     4     1  ar
     3     5     2  ar
     4     6     2  ar
     5     7     3  ar
     6     8     4  ar
     7     9     5  ar
     8    12     6  ar
     9    14     7  ar
    10    14     8  ar
    11    15     9  ar
    12    10    11  ar
    13    16    10  ar
    14    11    17  ar
    15    15    12  ar
    16    12    21   1
    17    16    13  ar
    18    13    18  ar
    19    13    22   1
    20    24    14   1
    21    25    15   1
    22    26    16   1
    23    18    17  ar
    24    17    33   1
    25    18    34   1
    26    20    19   2
    27    27    20   1
    28    21    28  am
    29    21    31   2
    30    22    30  ar
    31    22    32  ar
    32    23    33   1
    33    34    23   1
    34    28    24   1
    35    29    25   1
    36    29    26   1
    37    27    29   1
    38     1    35   1
    39     2    36   1
    40     3    37   1
    41     4    38   1
    42     5    39   1
    43     6    40   1
    44     7    41   1
    45     8    42   1
    46     9    43   1
    47    10    44   1
    48    11    45   1
    49    19    46   1
    50    19    47   1
    51    20    48   1
    52    23    49   1
    53    23    50   1
    54    24    51   1
    55    24    52   1
    56    25    53   1
    57    25    54   1
    58    26    55   1
    59    26    56   1
    60    27    57   1
    61    27    58   1
    62    28    59   1
    63    29    60   1
@<TRIPOS>SUBSTRUCTURE
     1  N44      1

