@<TRIPOS>MOLECULE
3zsx_ligand_057
    60    63
SMALL
GAST_HUCK
****
This file was generated by PARSER (from files_GN.cpp)

@<TRIPOS>ATOM
      1 C1        -21.3903   39.4954   -9.9633 C.ar        1 N44      -0.0687
      2 C2        -20.9210   47.1651   -8.3760 C.ar        1 N44      -0.0630
      3 C3        -22.2241   40.0990   -9.0062 C.ar        1 N44      -0.0685
      4 C4        -19.9977   39.6668   -9.8912 C.ar        1 N44      -0.0685
      5 C5        -20.4452   48.1161   -7.4614 C.ar        1 N44      -0.0640
      6 C6        -20.9193   45.8002   -8.0337 C.ar        1 N44      -0.0483
      7 C7        -21.6606   40.8548   -7.9610 C.ar        1 N44      -0.0584
      8 C8        -19.4338   40.4295   -8.8507 C.ar        1 N44      -0.0584
      9 C9        -19.9662   47.7050   -6.2052 C.ar        1 N44      -0.0493
     10 C10       -21.0592   47.8381   -0.7588 C.ar        1 N44      -0.0712
     11 C11       -21.8654   48.3638    0.2683 C.ar        1 N44      -0.0449
     12 C12       -20.4583   45.3737   -6.7653 C.ar        1 N44       0.0564
     13 C13       -21.2390   45.5909    0.2148 C.ar        1 N44       0.0376
     14 C14       -20.2581   41.0166   -7.8637 C.ar        1 N44      -0.0211
     15 C15       -19.9688   46.3386   -5.8293 C.ar        1 N44       0.0219
     16 C16       -20.7666   46.4503   -0.8283 C.ar        1 N44      -0.0032
     17 C17       -22.3687   47.4957    1.2464 C.ar        1 N44       0.1200
     18 C18       -22.0463   46.1495    1.2330 C.ar        1 N44       0.1327
     19 C19       -23.9282   45.7378   -2.2511 C.2         1 N44      -0.1125
     20 C20       -22.9346   46.3980   -2.8658 C.2         1 N44      -0.0447
     21 C21       -20.5817   44.0277   -6.4708 C.2         1 N44       0.2021
     22 C22       -20.9908   44.2004    0.2680 C.2         1 N44       0.0515
     23 C23       -23.3593   46.5434    2.9207 C.3         1 N44       0.1864
     24 C24       -19.6551   41.7610   -6.7285 C.3         1 N44       0.0638
     25 C25       -19.5171   45.9983   -4.4436 C.3         1 N44       0.0086
     26 C26       -19.9679   45.9787   -2.0040 C.3         1 N44       0.0003
     27 C27       -21.8895   45.7422   -3.6389 C.3         1 N44      -0.0011
     28 N28       -19.6845   43.1733   -6.9393 N.am        1 N44      -0.2760
     29 N29       -20.5199   46.3246   -3.3667 N.4         1 N44       0.2715
     30 O30       -21.5822   43.4041   -0.6495 O.co2       1 N44      -0.5668
     31 O31       -21.4984   43.6919   -5.7301 O.2         1 N44      -0.3884
     32 O32       -20.5627   43.6064    1.4089 O.co2       1 N44      -0.5668
     33 O33       -23.2099   47.8047    2.2499 O.3         1 N44      -0.2947
     34 O34       -22.6622   45.4930    2.2389 O.3         1 N44      -0.2890
     35 H1        -21.7974   38.9299  -10.7110 H           1 N44       0.0559
     36 H2        -21.2934   47.4682   -9.2807 H           1 N44       0.0572
     37 H3        -23.2364   39.9761   -9.0573 H           1 N44       0.0599
     38 H4        -19.3916   39.2338  -10.5901 H           1 N44       0.0599
     39 H5        -20.4681   49.1115   -7.7027 H           1 N44       0.0635
     40 H6        -21.2916   45.1306   -8.7155 H           1 N44       0.0651
     41 H7        -22.2798   41.2688   -7.2624 H           1 N44       0.0557
     42 H8        -18.4183   40.5461   -8.8119 H           1 N44       0.0557
     43 H9        -19.6444   48.4219   -5.5488 H           1 N44       0.0570
     44 H10       -20.7071   48.4752   -1.4771 H           1 N44       0.0445
     45 H11       -22.0983   49.3585    0.2863 H           1 N44       0.0514
     46 H12       -24.6524   46.2478   -1.7949 H           1 N44       0.0292
     47 H13       -23.9758   44.7473   -2.2723 H           1 N44       0.0292
     48 H14       -22.9615   47.3998   -2.8666 H           1 N44       0.0725
     49 H15       -24.4167   46.2851    2.9843 H           1 N44       0.0973
     50 H16       -22.9642   46.6282    3.9323 H           1 N44       0.0973
     51 H17       -18.6109   41.4779   -6.5969 H           1 N44       0.0683
     52 H18       -20.1650   41.4932   -5.7990 H           1 N44       0.0683
     53 H19       -18.5939   46.5623   -4.2654 H           1 N44       0.0995
     54 H20       -19.2397   44.9514   -4.3696 H           1 N44       0.0995
     55 H21       -19.8142   44.9009   -1.9563 H           1 N44       0.0966
     56 H22       -18.9738   46.4289   -1.8954 H           1 N44       0.0966
     57 H23       -22.1908   45.8862   -4.6952 H           1 N44       0.0998
     58 H24       -21.8678   44.6605   -3.4729 H           1 N44       0.0998
     59 H25       -18.9521   43.5443   -7.4544 H           1 N44       0.1869
     60 H26       -20.6235   47.3461   -3.3890 H           1 N44       0.2082
@<TRIPOS>BOND
     1     3     1  ar
     2     4     1  ar
     3     5     2  ar
     4     6     2  ar
     5     7     3  ar
     6     8     4  ar
     7     9     5  ar
     8    12     6  ar
     9    14     7  ar
    10    14     8  ar
    11    15     9  ar
    12    10    11  ar
    13    16    10  ar
    14    11    17  ar
    15    15    12  ar
    16    12    21   1
    17    16    13  ar
    18    13    18  ar
    19    13    22   1
    20    24    14   1
    21    25    15   1
    22    26    16   1
    23    18    17  ar
    24    17    33   1
    25    18    34   1
    26    20    19   2
    27    27    20   1
    28    21    28  am
    29    21    31   2
    30    22    30  ar
    31    22    32  ar
    32    23    33   1
    33    34    23   1
    34    28    24   1
    35    29    25   1
    36    29    26   1
    37    27    29   1
    38     1    35   1
    39     2    36   1
    40     3    37   1
    41     4    38   1
    42     5    39   1
    43     6    40   1
    44     7    41   1
    45     8    42   1
    46     9    43   1
    47    10    44   1
    48    11    45   1
    49    19    46   1
    50    19    47   1
    51    20    48   1
    52    23    49   1
    53    23    50   1
    54    24    51   1
    55    24    52   1
    56    25    53   1
    57    25    54   1
    58    26    55   1
    59    26    56   1
    60    27    57   1
    61    27    58   1
    62    28    59   1
    63    29    60   1
@<TRIPOS>SUBSTRUCTURE
     1  N44      1

