@<TRIPOS>MOLECULE
3zsx_ligand_034
    60    63
SMALL
GAST_HUCK
****
This file was generated by PARSER (from files_GN.cpp)

@<TRIPOS>ATOM
      1 C1        -21.3995   39.5364   -9.9677 C.ar        1 N44      -0.0687
      2 C2        -20.1841   47.1663   -9.1925 C.ar        1 N44      -0.0630
      3 C3        -20.0282   39.7758   -9.7681 C.ar        1 N44      -0.0685
      4 C4        -22.3458   40.1377   -9.1210 C.ar        1 N44      -0.0685
      5 C5        -20.5788   48.2870   -8.4558 C.ar        1 N44      -0.0640
      6 C6        -20.3720   45.8829   -8.6664 C.ar        1 N44      -0.0483
      7 C7        -19.6022   40.6142   -8.7171 C.ar        1 N44      -0.0584
      8 C8        -21.9195   40.9779   -8.0711 C.ar        1 N44      -0.0584
      9 C9        -21.1632   48.1151   -7.1940 C.ar        1 N44      -0.0493
     10 C10       -20.9697   45.5696   -0.6018 C.ar        1 N44      -0.0712
     11 C11       -20.9512   44.5829    0.3990 C.ar        1 N44      -0.0449
     12 C12       -20.9325   45.6786   -7.3760 C.ar        1 N44       0.0564
     13 C13       -22.4408   44.1797   -1.9810 C.ar        1 N44       0.0376
     14 C14       -20.5436   41.2244   -7.8536 C.ar        1 N44      -0.0211
     15 C15       -21.3178   46.8284   -6.6134 C.ar        1 N44       0.0219
     16 C16       -21.7178   45.3997   -1.7939 C.ar        1 N44      -0.0032
     17 C17       -21.6905   43.4103    0.2054 C.ar        1 N44       0.1200
     18 C18       -22.4037   43.2000   -0.9572 C.ar        1 N44       0.1327
     19 C19       -18.0191   45.1523   -4.9883 C.2         1 N44      -0.1125
     20 C20       -18.8524   46.1951   -5.1689 C.2         1 N44      -0.0447
     21 C21       -21.0765   44.3632   -6.9210 C.2         1 N44       0.2021
     22 C22       -23.2280   43.9075   -3.1291 C.2         1 N44       0.0515
     23 C23       -22.7463   41.5339    0.3970 C.3         1 N44       0.1864
     24 C24       -20.1206   42.0788   -6.7150 C.3         1 N44       0.0638
     25 C25       -21.9414   46.7623   -5.2457 C.3         1 N44       0.0086
     26 C26       -21.7827   46.5270   -2.7729 C.3         1 N44       0.0003
     27 C27       -19.6790   46.7488   -4.1121 C.3         1 N44      -0.0011
     28 N28       -20.1107   43.4580   -7.1024 N.am        1 N44      -0.2760
     29 N29       -21.1020   46.2469   -4.0977 N.4         1 N44       0.2715
     30 O30       -22.8989   42.8916   -3.9661 O.co2       1 N44      -0.5668
     31 O31       -22.1423   43.9992   -6.4318 O.2         1 N44      -0.3884
     32 O32       -24.4877   44.3972   -3.2363 O.co2       1 N44      -0.5668
     33 O33       -21.7987   42.3829    1.0683 O.3         1 N44      -0.2947
     34 O34       -23.0392   42.0087   -0.9283 O.3         1 N44      -0.2890
     35 H1        -21.7085   38.9291  -10.7247 H           1 N44       0.0559
     36 H2        -19.7703   47.2853  -10.1220 H           1 N44       0.0572
     37 H3        -19.3385   39.3439  -10.3888 H           1 N44       0.0599
     38 H4        -23.3449   39.9630   -9.2589 H           1 N44       0.0599
     39 H5        -20.4592   49.2231   -8.8452 H           1 N44       0.0635
     40 H6        -20.1017   45.0921   -9.2544 H           1 N44       0.0651
     41 H7        -18.5965   40.7745   -8.5904 H           1 N44       0.0557
     42 H8        -22.6244   41.4002   -7.4527 H           1 N44       0.0557
     43 H9        -21.4445   48.9560   -6.6913 H           1 N44       0.0570
     44 H10       -20.4388   46.4210   -0.4481 H           1 N44       0.0445
     45 H11       -20.4257   44.7262    1.2580 H           1 N44       0.0514
     46 H12       -17.4527   44.8312   -5.7367 H           1 N44       0.0292
     47 H13       -17.9469   44.7000   -4.1078 H           1 N44       0.0292
     48 H14       -18.8257   46.6603   -6.0516 H           1 N44       0.0725
     49 H15       -23.6687   41.4874    0.9785 H           1 N44       0.0973
     50 H16       -22.3381   40.5171    0.3226 H           1 N44       0.0973
     51 H17       -19.1101   41.8309   -6.3932 H           1 N44       0.0683
     52 H18       -20.7779   41.8918   -5.8655 H           1 N44       0.0683
     53 H19       -22.8382   46.1364   -5.3396 H           1 N44       0.0995
     54 H20       -22.3208   47.7474   -4.9548 H           1 N44       0.0995
     55 H21       -21.3644   47.4405   -2.3416 H           1 N44       0.0966
     56 H22       -22.8464   46.7683   -2.9000 H           1 N44       0.0966
     57 H23       -19.6806   47.8366   -4.2114 H           1 N44       0.0998
     58 H24       -19.1835   46.5214   -3.1643 H           1 N44       0.0998
     59 H25       -19.2872   43.7737   -7.5134 H           1 N44       0.1869
     60 H26       -21.0699   45.2279   -4.1940 H           1 N44       0.2082
@<TRIPOS>BOND
     1     3     1  ar
     2     4     1  ar
     3     5     2  ar
     4     6     2  ar
     5     7     3  ar
     6     8     4  ar
     7     9     5  ar
     8    12     6  ar
     9    14     7  ar
    10    14     8  ar
    11    15     9  ar
    12    10    11  ar
    13    16    10  ar
    14    11    17  ar
    15    15    12  ar
    16    12    21   1
    17    16    13  ar
    18    13    18  ar
    19    13    22   1
    20    24    14   1
    21    25    15   1
    22    26    16   1
    23    18    17  ar
    24    17    33   1
    25    18    34   1
    26    20    19   2
    27    27    20   1
    28    21    28  am
    29    21    31   2
    30    22    30  ar
    31    22    32  ar
    32    23    33   1
    33    34    23   1
    34    28    24   1
    35    29    25   1
    36    29    26   1
    37    27    29   1
    38     1    35   1
    39     2    36   1
    40     3    37   1
    41     4    38   1
    42     5    39   1
    43     6    40   1
    44     7    41   1
    45     8    42   1
    46     9    43   1
    47    10    44   1
    48    11    45   1
    49    19    46   1
    50    19    47   1
    51    20    48   1
    52    23    49   1
    53    23    50   1
    54    24    51   1
    55    24    52   1
    56    25    53   1
    57    25    54   1
    58    26    55   1
    59    26    56   1
    60    27    57   1
    61    27    58   1
    62    28    59   1
    63    29    60   1
@<TRIPOS>SUBSTRUCTURE
     1  N44      1

