@<TRIPOS>MOLECULE
3zsx_ligand_042
    60    63
SMALL
GAST_HUCK
****
This file was generated by PARSER (from files_GN.cpp)

@<TRIPOS>ATOM
      1 C1         -4.3425   49.6273   -1.6423 C.ar        1 N44      -0.0687
      2 C2        -10.6557   51.1475    3.1080 C.ar        1 N44      -0.0630
      3 C3         -5.0586   48.4174   -1.5971 C.ar        1 N44      -0.0685
      4 C4         -5.0317   50.8473   -1.7677 C.ar        1 N44      -0.0685
      5 C5        -11.9641   50.6836    3.3097 C.ar        1 N44      -0.0640
      6 C6        -10.1145   51.1708    1.8113 C.ar        1 N44      -0.0483
      7 C7         -6.4623   48.4256   -1.6966 C.ar        1 N44      -0.0584
      8 C8         -6.4367   50.8555   -1.8626 C.ar        1 N44      -0.0584
      9 C9        -12.7258   50.2407    2.2177 C.ar        1 N44      -0.0493
     10 C10       -10.6871   45.7185   -1.5939 C.ar        1 N44      -0.0712
     11 C11        -9.8996   44.5709   -1.3768 C.ar        1 N44      -0.0449
     12 C12       -10.8780   50.7450    0.6951 C.ar        1 N44       0.0564
     13 C13       -11.7476   45.4626    0.5960 C.ar        1 N44       0.0376
     14 C14        -7.1650   49.6438   -1.8464 C.ar        1 N44      -0.0211
     15 C15       -12.2153   50.2770    0.8948 C.ar        1 N44       0.0219
     16 C16       -11.6191   46.1977   -0.6262 C.ar        1 N44      -0.0032
     17 C17       -10.0319   43.8921   -0.1631 C.ar        1 N44       0.1200
     18 C18       -10.9446   44.3134    0.7884 C.ar        1 N44       0.1327
     19 C19       -15.6389   46.6645   -1.9988 C.2         1 N44      -0.1125
     20 C20       -15.3714   47.7540   -1.2613 C.2         1 N44      -0.0447
     21 C21       -10.2629   50.7514   -0.5375 C.2         1 N44       0.2021
     22 C22       -12.6421   45.7886    1.6279 C.2         1 N44       0.0515
     23 C23        -9.9261   42.5384    1.5167 C.3         1 N44       0.1864
     24 C24        -8.6387   49.6517   -2.0215 C.3         1 N44       0.0638
     25 C25       -13.1023   49.7339   -0.1798 C.3         1 N44       0.0086
     26 C26       -12.3209   47.4721   -1.0117 C.3         1 N44       0.0003
     27 C27       -14.6329   47.7324   -0.0048 C.3         1 N44      -0.0011
     28 N28        -9.2835   49.8826   -0.7733 N.am        1 N44      -0.2760
     29 N29       -13.2155   48.2302   -0.0605 N.4         1 N44       0.2715
     30 O30       -13.7126   44.9913    1.8582 O.co2       1 N44      -0.5668
     31 O31       -10.6720   51.5213   -1.3984 O.2         1 N44      -0.3884
     32 O32       -12.2232   46.5913    2.6293 O.co2       1 N44      -0.5668
     33 O33        -9.3438   42.8045    0.2293 O.3         1 N44      -0.2947
     34 O34       -10.9143   43.5178    1.8761 O.3         1 N44      -0.2890
     35 H1         -3.3210   49.6195   -1.5803 H           1 N44       0.0559
     36 H2        -10.0897   51.4491    3.9051 H           1 N44       0.0572
     37 H3         -4.5592   47.5303   -1.4971 H           1 N44       0.0599
     38 H4         -4.5104   51.7266   -1.7967 H           1 N44       0.0599
     39 H5        -12.3494   50.6328    4.2570 H           1 N44       0.0635
     40 H6         -9.1494   51.4963    1.6909 H           1 N44       0.0651
     41 H7         -6.9658   47.5356   -1.6702 H           1 N44       0.0557
     42 H8         -6.9200   51.7507   -1.9650 H           1 N44       0.0557
     43 H9        -13.6639   49.8730    2.3986 H           1 N44       0.0570
     44 H10       -10.5746   46.2075   -2.4906 H           1 N44       0.0445
     45 H11        -9.2323   44.2573   -2.0840 H           1 N44       0.0514
     46 H12       -16.1898   46.7419   -2.8182 H           1 N44       0.0292
     47 H13       -15.3083   45.7666   -1.7316 H           1 N44       0.0292
     48 H14       -15.7210   48.6262   -1.5814 H           1 N44       0.0725
     49 H15        -9.1410   42.5375    2.2745 H           1 N44       0.0973
     50 H16       -10.3911   41.5502    1.4994 H           1 N44       0.0973
     51 H17        -8.9833   48.6832   -2.3939 H           1 N44       0.0683
     52 H18        -8.9066   50.3926   -2.7798 H           1 N44       0.0683
     53 H19       -12.7584   50.0165   -1.1745 H           1 N44       0.0995
     54 H20       -14.0727   50.2307   -0.0713 H           1 N44       0.0995
     55 H21       -12.8981   47.2579   -1.9157 H           1 N44       0.0966
     56 H22       -11.5043   48.1370   -1.3224 H           1 N44       0.0966
     57 H23       -14.6468   46.7274    0.4333 H           1 N44       0.0998
     58 H24       -15.1816   48.3619    0.7031 H           1 N44       0.0998
     59 H25        -9.0426   49.2863   -0.0444 H           1 N44       0.1869
     60 H26       -12.8325   48.0313    0.8552 H           1 N44       0.2082
@<TRIPOS>BOND
     1     3     1  ar
     2     4     1  ar
     3     5     2  ar
     4     6     2  ar
     5     7     3  ar
     6     8     4  ar
     7     9     5  ar
     8    12     6  ar
     9    14     7  ar
    10    14     8  ar
    11    15     9  ar
    12    10    11  ar
    13    16    10  ar
    14    11    17  ar
    15    15    12  ar
    16    12    21   1
    17    16    13  ar
    18    13    18  ar
    19    13    22   1
    20    24    14   1
    21    25    15   1
    22    26    16   1
    23    18    17  ar
    24    17    33   1
    25    18    34   1
    26    20    19   2
    27    27    20   1
    28    21    28  am
    29    21    31   2
    30    22    30  ar
    31    22    32  ar
    32    23    33   1
    33    34    23   1
    34    28    24   1
    35    29    25   1
    36    29    26   1
    37    27    29   1
    38     1    35   1
    39     2    36   1
    40     3    37   1
    41     4    38   1
    42     5    39   1
    43     6    40   1
    44     7    41   1
    45     8    42   1
    46     9    43   1
    47    10    44   1
    48    11    45   1
    49    19    46   1
    50    19    47   1
    51    20    48   1
    52    23    49   1
    53    23    50   1
    54    24    51   1
    55    24    52   1
    56    25    53   1
    57    25    54   1
    58    26    55   1
    59    26    56   1
    60    27    57   1
    61    27    58   1
    62    28    59   1
    63    29    60   1
@<TRIPOS>SUBSTRUCTURE
     1  N44      1

