@<TRIPOS>MOLECULE
3zsx_ligand_054
    60    63
SMALL
GAST_HUCK
****
This file was generated by PARSER (from files_GN.cpp)

@<TRIPOS>ATOM
      1 C1        -15.4770   49.5769    7.4669 C.ar        1 N44      -0.0687
      2 C2        -15.2215   50.2040   -0.3213 C.ar        1 N44      -0.0630
      3 C3        -14.3797   48.7002    7.5683 C.ar        1 N44      -0.0685
      4 C4        -15.4674   50.6065    6.5089 C.ar        1 N44      -0.0685
      5 C5        -14.3608   50.8502   -1.2122 C.ar        1 N44      -0.0640
      6 C6        -14.7204   49.6906    0.8924 C.ar        1 N44      -0.0483
      7 C7        -13.2849   48.8324    6.6851 C.ar        1 N44      -0.0584
      8 C8        -14.3757   50.7401    5.6314 C.ar        1 N44      -0.0584
      9 C9        -12.9857   50.9393   -0.9154 C.ar        1 N44      -0.0493
     10 C10       -10.9361   46.8919   -1.6396 C.ar        1 N44      -0.0712
     11 C11       -11.5241   45.9566   -2.5061 C.ar        1 N44      -0.0449
     12 C12       -13.3585   49.8706    1.2561 C.ar        1 N44       0.0564
     13 C13       -12.4327   46.2067    0.1911 C.ar        1 N44       0.0376
     14 C14       -13.2704   49.8575    5.7039 C.ar        1 N44      -0.0211
     15 C15       -12.4658   50.4518    0.3130 C.ar        1 N44       0.0219
     16 C16       -11.3624   47.0467   -0.2913 C.ar        1 N44      -0.0032
     17 C17       -12.5805   45.1661   -2.0264 C.ar        1 N44       0.1200
     18 C18       -13.0214   45.2875   -0.7198 C.ar        1 N44       0.1327
     19 C19        -7.2120   47.8839   -1.0322 C.2         1 N44      -0.1125
     20 C20        -8.1862   48.7652   -1.3054 C.2         1 N44      -0.0447
     21 C21       -12.9688   49.4463    2.5250 C.2         1 N44       0.2021
     22 C22       -12.9321   46.1858    1.5188 C.2         1 N44       0.0515
     23 C23       -13.9239   43.5394   -1.6379 C.3         1 N44       0.1864
     24 C24       -12.1277   50.0103    4.7658 C.3         1 N44       0.0638
     25 C25       -10.9811   50.5287    0.4667 C.3         1 N44       0.0086
     26 C26       -10.5773   48.0263    0.5340 C.3         1 N44       0.0003
     27 C27        -8.7994   49.6328   -0.3129 C.3         1 N44      -0.0011
     28 N28       -12.5451   50.3302    3.4415 N.am        1 N44      -0.2760
     29 N29       -10.2746   49.3478   -0.1563 N.4         1 N44       0.2715
     30 O30       -12.1189   46.2743    2.6094 O.co2       1 N44      -0.5668
     31 O31       -13.0602   48.2599    2.8062 O.2         1 N44      -0.3884
     32 O32       -14.2365   45.9140    1.7962 O.co2       1 N44      -0.5668
     33 O33       -13.2253   44.1946   -2.6998 O.3         1 N44      -0.2947
     34 O34       -13.9861   44.3718   -0.4715 O.3         1 N44      -0.2890
     35 H1        -16.2643   49.4818    8.1156 H           1 N44       0.0559
     36 H2        -16.2093   50.1037   -0.5536 H           1 N44       0.0572
     37 H3        -14.3786   47.9609    8.2775 H           1 N44       0.0599
     38 H4        -16.2638   51.2446    6.4417 H           1 N44       0.0599
     39 H5        -14.7327   51.2282   -2.0838 H           1 N44       0.0635
     40 H6        -15.3777   49.2450    1.5331 H           1 N44       0.0651
     41 H7        -12.5104   48.1680    6.7574 H           1 N44       0.0557
     42 H8        -14.3943   51.4854    4.9366 H           1 N44       0.0557
     43 H9        -12.3687   51.3863   -1.5967 H           1 N44       0.0570
     44 H10       -10.1685   47.4554   -2.0069 H           1 N44       0.0445
     45 H11       -11.1830   45.8311   -3.4614 H           1 N44       0.0514
     46 H12        -6.8270   47.3291   -1.7676 H           1 N44       0.0292
     47 H13        -6.8555   47.7808   -0.1075 H           1 N44       0.0292
     48 H14        -8.5119   48.8347   -2.2420 H           1 N44       0.0725
     49 H15       -13.4241   42.6059   -1.3850 H           1 N44       0.0973
     50 H16       -14.9365   43.2991   -1.9574 H           1 N44       0.0973
     51 H17       -11.5072   49.1018    4.7341 H           1 N44       0.0683
     52 H18       -11.4918   50.8243    5.1320 H           1 N44       0.0683
     53 H19       -10.6827   50.6063    1.5063 H           1 N44       0.0995
     54 H20       -10.6662   51.4679    0.0036 H           1 N44       0.0995
     55 H21        -9.6492   47.5149    0.7944 H           1 N44       0.0966
     56 H22       -11.0595   48.2327    1.4864 H           1 N44       0.0966
     57 H23        -8.6299   50.6500   -0.6816 H           1 N44       0.0998
     58 H24        -8.3128   49.5557    0.6662 H           1 N44       0.0998
     59 H25       -12.5214   51.2639    3.1770 H           1 N44       0.1869
     60 H26       -10.6446   49.2874   -1.1072 H           1 N44       0.2082
@<TRIPOS>BOND
     1     3     1  ar
     2     4     1  ar
     3     5     2  ar
     4     6     2  ar
     5     7     3  ar
     6     8     4  ar
     7     9     5  ar
     8    12     6  ar
     9    14     7  ar
    10    14     8  ar
    11    15     9  ar
    12    10    11  ar
    13    16    10  ar
    14    11    17  ar
    15    15    12  ar
    16    12    21   1
    17    16    13  ar
    18    13    18  ar
    19    13    22   1
    20    24    14   1
    21    25    15   1
    22    26    16   1
    23    18    17  ar
    24    17    33   1
    25    18    34   1
    26    20    19   2
    27    27    20   1
    28    21    28  am
    29    21    31   2
    30    22    30  ar
    31    22    32  ar
    32    23    33   1
    33    34    23   1
    34    28    24   1
    35    29    25   1
    36    29    26   1
    37    27    29   1
    38     1    35   1
    39     2    36   1
    40     3    37   1
    41     4    38   1
    42     5    39   1
    43     6    40   1
    44     7    41   1
    45     8    42   1
    46     9    43   1
    47    10    44   1
    48    11    45   1
    49    19    46   1
    50    19    47   1
    51    20    48   1
    52    23    49   1
    53    23    50   1
    54    24    51   1
    55    24    52   1
    56    25    53   1
    57    25    54   1
    58    26    55   1
    59    26    56   1
    60    27    57   1
    61    27    58   1
    62    28    59   1
    63    29    60   1
@<TRIPOS>SUBSTRUCTURE
     1  N44      1

