@<TRIPOS>MOLECULE
3zsx_ligand_037
    60    63
SMALL
GAST_HUCK
****
This file was generated by PARSER (from files_GN.cpp)

@<TRIPOS>ATOM
      1 C1        -23.5231   47.4658   -7.8843 C.ar        1 N44      -0.0687
      2 C2        -18.5199   50.1253   -2.9828 C.ar        1 N44      -0.0630
      3 C3        -23.7217   47.3973   -6.4938 C.ar        1 N44      -0.0685
      4 C4        -22.3718   46.8987   -8.4566 C.ar        1 N44      -0.0685
      5 C5        -17.3332   50.0455   -2.2471 C.ar        1 N44      -0.0640
      6 C6        -18.9297   49.0387   -3.7655 C.ar        1 N44      -0.0483
      7 C7        -22.7664   46.7629   -5.6755 C.ar        1 N44      -0.0584
      8 C8        -21.4214   46.2584   -7.6401 C.ar        1 N44      -0.0584
      9 C9        -16.5541   48.8779   -2.3011 C.ar        1 N44      -0.0493
     10 C10       -12.5113   46.4164   -2.1105 C.ar        1 N44      -0.0712
     11 C11       -11.4894   47.3174   -1.7623 C.ar        1 N44      -0.0449
     12 C12       -18.1596   47.8490   -3.8463 C.ar        1 N44       0.0564
     13 C13       -13.5804   46.7412    0.0746 C.ar        1 N44       0.0376
     14 C14       -21.6058   46.1775   -6.2388 C.ar        1 N44      -0.0211
     15 C15       -16.9338   47.7718   -3.1051 C.ar        1 N44       0.0219
     16 C16       -13.5636   46.1061   -1.2067 C.ar        1 N44      -0.0032
     17 C17       -11.5220   47.9222   -0.5012 C.ar        1 N44       0.1200
     18 C18       -12.5396   47.6439    0.3960 C.ar        1 N44       0.1327
     19 C19       -16.7298   42.5539   -1.2675 C.2         1 N44      -0.1125
     20 C20       -17.1205   43.7735   -0.8710 C.2         1 N44      -0.0447
     21 C21       -18.6498   46.8271   -4.6611 C.2         1 N44       0.2021
     22 C22       -14.5594   46.4735    1.0599 C.2         1 N44       0.0515
     23 C23       -11.0437   48.8854    1.3617 C.3         1 N44       0.1864
     24 C24       -20.6110   45.4937   -5.3740 C.3         1 N44       0.0638
     25 C25       -15.9783   46.6174   -3.1248 C.3         1 N44       0.0086
     26 C26       -14.6210   45.1378   -1.6405 C.3         1 N44       0.0003
     27 C27       -17.1825   44.8963   -1.7945 C.3         1 N44      -0.0011
     28 N28       -19.9194   46.4489   -4.5610 N.am        1 N44      -0.2760
     29 N29       -15.9673   45.7879   -1.8604 N.4         1 N44       0.2715
     30 O30       -15.0983   47.4788    1.7849 O.co2       1 N44      -0.5668
     31 O31       -17.9387   46.3926   -5.5595 O.2         1 N44      -0.3884
     32 O32       -14.6792   45.2327    1.5777 O.co2       1 N44      -0.5668
     33 O33       -10.6338   48.8036   -0.0131 O.3         1 N44      -0.2947
     34 O34       -12.3494   48.3128    1.5539 O.3         1 N44      -0.2890
     35 H1        -24.2177   47.9234   -8.4791 H           1 N44       0.0559
     36 H2        -19.0834   50.9762   -2.9523 H           1 N44       0.0572
     37 H3        -24.5625   47.8038   -6.0783 H           1 N44       0.0599
     38 H4        -22.2257   46.9492   -9.4687 H           1 N44       0.0599
     39 H5        -17.0295   50.8360   -1.6746 H           1 N44       0.0635
     40 H6        -19.7950   49.1371   -4.3036 H           1 N44       0.0651
     41 H7        -22.9264   46.7242   -4.6663 H           1 N44       0.0557
     42 H8        -20.5889   45.8540   -8.0777 H           1 N44       0.0557
     43 H9        -15.6871   48.8507   -1.7543 H           1 N44       0.0570
     44 H10       -12.4776   45.9858   -3.0393 H           1 N44       0.0445
     45 H11       -10.7328   47.5294   -2.4160 H           1 N44       0.0514
     46 H12       -16.6145   41.8145   -0.6088 H           1 N44       0.0292
     47 H13       -16.4998   42.3750   -2.2186 H           1 N44       0.0292
     48 H14       -17.2885   43.9241    0.0975 H           1 N44       0.0725
     49 H15       -11.0547   49.9320    1.6729 H           1 N44       0.0973
     50 H16       -10.3191   48.3474    1.9805 H           1 N44       0.0973
     51 H17       -19.9155   44.9015   -5.9758 H           1 N44       0.0683
     52 H18       -21.1282   44.7940   -4.7144 H           1 N44       0.0683
     53 H19       -14.9929   47.0475   -3.3177 H           1 N44       0.0995
     54 H20       -16.1401   45.9607   -3.9796 H           1 N44       0.0995
     55 H21       -14.6494   44.3836   -0.8620 H           1 N44       0.0966
     56 H22       -14.3241   44.5997   -2.5472 H           1 N44       0.0966
     57 H23       -18.0225   45.5199   -1.4820 H           1 N44       0.0998
     58 H24       -17.4551   44.5150   -2.7834 H           1 N44       0.0998
     59 H25       -20.4522   46.8790   -3.8700 H           1 N44       0.1869
     60 H26       -16.0970   46.4220   -1.0714 H           1 N44       0.2082
@<TRIPOS>BOND
     1     3     1  ar
     2     4     1  ar
     3     5     2  ar
     4     6     2  ar
     5     7     3  ar
     6     8     4  ar
     7     9     5  ar
     8    12     6  ar
     9    14     7  ar
    10    14     8  ar
    11    15     9  ar
    12    10    11  ar
    13    16    10  ar
    14    11    17  ar
    15    15    12  ar
    16    12    21   1
    17    16    13  ar
    18    13    18  ar
    19    13    22   1
    20    24    14   1
    21    25    15   1
    22    26    16   1
    23    18    17  ar
    24    17    33   1
    25    18    34   1
    26    20    19   2
    27    27    20   1
    28    21    28  am
    29    21    31   2
    30    22    30  ar
    31    22    32  ar
    32    23    33   1
    33    34    23   1
    34    28    24   1
    35    29    25   1
    36    29    26   1
    37    27    29   1
    38     1    35   1
    39     2    36   1
    40     3    37   1
    41     4    38   1
    42     5    39   1
    43     6    40   1
    44     7    41   1
    45     8    42   1
    46     9    43   1
    47    10    44   1
    48    11    45   1
    49    19    46   1
    50    19    47   1
    51    20    48   1
    52    23    49   1
    53    23    50   1
    54    24    51   1
    55    24    52   1
    56    25    53   1
    57    25    54   1
    58    26    55   1
    59    26    56   1
    60    27    57   1
    61    27    58   1
    62    28    59   1
    63    29    60   1
@<TRIPOS>SUBSTRUCTURE
     1  N44      1

