@<TRIPOS>MOLECULE
3zsx_ligand_055
    60    63
SMALL
GAST_HUCK
****
This file was generated by PARSER (from files_GN.cpp)

@<TRIPOS>ATOM
      1 C1        -17.5912   52.2707   -4.7907 C.ar        1 N44      -0.0687
      2 C2        -16.0918   43.6999   -5.7228 C.ar        1 N44      -0.0630
      3 C3        -16.2405   51.8996   -4.8780 C.ar        1 N44      -0.0685
      4 C4        -18.5563   51.5932   -5.5625 C.ar        1 N44      -0.0685
      5 C5        -16.7979   43.3971   -4.5556 C.ar        1 N44      -0.0640
      6 C6        -15.8208   45.0366   -6.0424 C.ar        1 N44      -0.0483
      7 C7        -15.8462   50.8548   -5.7287 C.ar        1 N44      -0.0584
      8 C8        -18.1646   50.5441   -6.4122 C.ar        1 N44      -0.0584
      9 C9        -17.0278   44.4181   -3.6208 C.ar        1 N44      -0.0493
     10 C10       -11.9540   45.7272   -2.1492 C.ar        1 N44      -0.0712
     11 C11       -10.8199   44.9688   -1.7906 C.ar        1 N44      -0.0449
     12 C12       -16.0960   46.0946   -5.1326 C.ar        1 N44       0.0564
     13 C13       -12.6540   45.8446    0.1991 C.ar        1 N44       0.0376
     14 C14       -16.8043   50.1612   -6.5116 C.ar        1 N44      -0.0211
     15 C15       -16.5634   45.7424   -3.8199 C.ar        1 N44       0.0219
     16 C16       -12.9068   46.1534   -1.1773 C.ar        1 N44      -0.0032
     17 C17       -10.6293   44.6342   -0.4422 C.ar        1 N44       0.1200
     18 C18       -11.5254   45.0560    0.5275 C.ar        1 N44       0.1327
     19 C19       -16.7341   42.7084   -0.6612 C.2         1 N44      -0.1125
     20 C20       -16.5439   44.0335   -0.6967 C.2         1 N44      -0.0447
     21 C21       -15.9336   47.4059   -5.6073 C.2         1 N44       0.2021
     22 C22       -13.5108   46.2256    1.2392 C.2         1 N44       0.0515
     23 C23       -10.1497   43.6263    1.3905 C.3         1 N44       0.1864
     24 C24       -16.3822   49.0496   -7.4047 C.3         1 N44       0.0638
     25 C25       -16.5011   46.5918   -2.5736 C.3         1 N44       0.0086
     26 C26       -14.1593   46.8449   -1.6394 C.3         1 N44       0.0003
     27 C27       -15.3967   44.6358   -1.3454 C.3         1 N44      -0.0011
     28 N28       -16.4635   47.7702   -6.7720 N.am        1 N44      -0.2760
     29 N29       -15.4960   46.1345   -1.5202 N.4         1 N44       0.2715
     30 O30       -14.3638   45.3087    1.7571 O.co2       1 N44      -0.5668
     31 O31       -15.3811   48.2630   -4.9237 O.2         1 N44      -0.3884
     32 O32       -13.0769   47.1889    2.0859 O.co2       1 N44      -0.5668
     33 O33        -9.6403   43.8770    0.0661 O.3         1 N44      -0.2947
     34 O34       -11.1614   44.5924    1.7439 O.3         1 N44      -0.2890
     35 H1        -17.8715   53.0397   -4.1795 H           1 N44       0.0559
     36 H2        -15.8299   42.9533   -6.3635 H           1 N44       0.0572
     37 H3        -15.5351   52.3932   -4.3213 H           1 N44       0.0599
     38 H4        -19.5402   51.8605   -5.4927 H           1 N44       0.0599
     39 H5        -17.0806   42.4370   -4.3479 H           1 N44       0.0635
     40 H6        -15.3886   45.2306   -6.9468 H           1 N44       0.0651
     41 H7        -14.8599   50.6016   -5.7831 H           1 N44       0.0557
     42 H8        -18.8806   50.0564   -6.9628 H           1 N44       0.0557
     43 H9        -17.4890   44.1666   -2.7474 H           1 N44       0.0570
     44 H10       -12.0981   45.9317   -3.1430 H           1 N44       0.0445
     45 H11       -10.1559   44.6468   -2.4978 H           1 N44       0.0514
     46 H12       -17.5066   42.3389   -0.1633 H           1 N44       0.0292
     47 H13       -16.1250   42.0868   -1.1373 H           1 N44       0.0292
     48 H14       -17.1989   44.6119   -0.2266 H           1 N44       0.0725
     49 H15        -9.3316   43.6727    2.1115 H           1 N44       0.0973
     50 H16       -10.5832   42.6200    1.4261 H           1 N44       0.0973
     51 H17       -15.3621   49.1935   -7.7810 H           1 N44       0.0683
     52 H18       -17.0389   49.0453   -8.2755 H           1 N44       0.0683
     53 H19       -17.4947   46.6020   -2.1108 H           1 N44       0.0995
     54 H20       -16.3356   47.6440   -2.8170 H           1 N44       0.0995
     55 H21       -14.0190   47.1236   -2.6823 H           1 N44       0.0966
     56 H22       -14.2285   47.7851   -1.0750 H           1 N44       0.0966
     57 H23       -15.2108   44.1526   -2.3035 H           1 N44       0.0998
     58 H24       -14.5394   44.3948   -0.7134 H           1 N44       0.0998
     59 H25       -16.9731   47.0923   -7.2509 H           1 N44       0.1869
     60 H26       -15.8878   46.4819   -0.6362 H           1 N44       0.2082
@<TRIPOS>BOND
     1     3     1  ar
     2     4     1  ar
     3     5     2  ar
     4     6     2  ar
     5     7     3  ar
     6     8     4  ar
     7     9     5  ar
     8    12     6  ar
     9    14     7  ar
    10    14     8  ar
    11    15     9  ar
    12    10    11  ar
    13    16    10  ar
    14    11    17  ar
    15    15    12  ar
    16    12    21   1
    17    16    13  ar
    18    13    18  ar
    19    13    22   1
    20    24    14   1
    21    25    15   1
    22    26    16   1
    23    18    17  ar
    24    17    33   1
    25    18    34   1
    26    20    19   2
    27    27    20   1
    28    21    28  am
    29    21    31   2
    30    22    30  ar
    31    22    32  ar
    32    23    33   1
    33    34    23   1
    34    28    24   1
    35    29    25   1
    36    29    26   1
    37    27    29   1
    38     1    35   1
    39     2    36   1
    40     3    37   1
    41     4    38   1
    42     5    39   1
    43     6    40   1
    44     7    41   1
    45     8    42   1
    46     9    43   1
    47    10    44   1
    48    11    45   1
    49    19    46   1
    50    19    47   1
    51    20    48   1
    52    23    49   1
    53    23    50   1
    54    24    51   1
    55    24    52   1
    56    25    53   1
    57    25    54   1
    58    26    55   1
    59    26    56   1
    60    27    57   1
    61    27    58   1
    62    28    59   1
    63    29    60   1
@<TRIPOS>SUBSTRUCTURE
     1  N44      1

