@<TRIPOS>MOLECULE
3zsx_ligand_030
    60    63
SMALL
GAST_HUCK
****
This file was generated by PARSER (from files_GN.cpp)

@<TRIPOS>ATOM
      1 C1        -18.9294   45.8813   -2.4175 C.ar        1 N44      -0.0687
      2 C2        -24.4959   39.3064   -3.8794 C.ar        1 N44      -0.0630
      3 C3        -19.0661   45.1539   -1.2228 C.ar        1 N44      -0.0685
      4 C4        -20.0267   46.0165   -3.2847 C.ar        1 N44      -0.0685
      5 C5        -24.2435   39.1142   -5.2432 C.ar        1 N44      -0.0640
      6 C6        -24.2243   40.5488   -3.2900 C.ar        1 N44      -0.0483
      7 C7        -20.3037   44.5744   -0.8853 C.ar        1 N44      -0.0584
      8 C8        -21.2599   45.4253   -2.9563 C.ar        1 N44      -0.0584
      9 C9        -23.6977   40.1590   -6.0087 C.ar        1 N44      -0.0493
     10 C10       -21.1599   39.7760   -9.2012 C.ar        1 N44      -0.0712
     11 C11       -21.1668   38.5104   -9.8054 C.ar        1 N44      -0.0449
     12 C12       -23.6899   41.6211   -4.0481 C.ar        1 N44       0.0564
     13 C13       -20.5412   38.8029   -7.0256 C.ar        1 N44       0.0376
     14 C14       -21.4159   44.6963   -1.7528 C.ar        1 N44      -0.0211
     15 C15       -23.3754   41.4153   -5.4303 C.ar        1 N44       0.0219
     16 C16       -20.8611   39.9585   -7.8201 C.ar        1 N44      -0.0032
     17 C17       -20.8438   37.4037   -9.0229 C.ar        1 N44       0.1200
     18 C18       -20.5442   37.5395   -7.6770 C.ar        1 N44       0.1327
     19 C19       -20.0348   43.3217   -9.9139 C.2         1 N44      -0.1125
     20 C20       -20.8648   43.8612   -9.0140 C.2         1 N44      -0.0447
     21 C21       -23.5533   42.8450   -3.4026 C.2         1 N44       0.2021
     22 C22       -20.1783   38.8191   -5.6408 C.2         1 N44       0.0515
     23 C23       -20.5049   35.4253   -8.2468 C.3         1 N44       0.1864
     24 C24       -22.7207   44.0682   -1.4242 C.3         1 N44       0.0638
     25 C25       -22.8176   42.5144   -6.2892 C.3         1 N44       0.0086
     26 C26       -20.8069   41.3865   -7.3756 C.3         1 N44       0.0003
     27 C27       -22.1206   43.2439   -8.6127 C.3         1 N44      -0.0011
     28 N28       -22.9316   42.9078   -2.2306 N.am        1 N44      -0.2760
     29 N29       -22.1098   42.1411   -7.5669 N.4         1 N44       0.2715
     30 O30       -19.5738   37.7721   -5.0398 O.co2       1 N44      -0.5668
     31 O31       -24.0366   43.8435   -3.9222 O.2         1 N44      -0.3884
     32 O32       -20.4147   39.8343   -4.7849 O.co2       1 N44      -0.5668
     33 O33       -20.7661   36.1373   -9.4629 O.3         1 N44      -0.2947
     34 O34       -20.2625   36.3254   -7.1527 O.3         1 N44      -0.2890
     35 H1        -18.0313   46.3085   -2.6562 H           1 N44       0.0559
     36 H2        -24.9028   38.5505   -3.3235 H           1 N44       0.0572
     37 H3        -18.2617   45.0346   -0.6050 H           1 N44       0.0599
     38 H4        -19.9286   46.5453   -4.1546 H           1 N44       0.0599
     39 H5        -24.4691   38.2206   -5.6846 H           1 N44       0.0635
     40 H6        -24.4678   40.6710   -2.3012 H           1 N44       0.0651
     41 H7        -20.3787   44.0425   -0.0151 H           1 N44       0.0557
     42 H8        -22.0463   45.5381   -3.5999 H           1 N44       0.0557
     43 H9        -23.5566   39.9858   -7.0023 H           1 N44       0.0570
     44 H10       -21.3684   40.5734   -9.8006 H           1 N44       0.0445
     45 H11       -21.3834   38.4038  -10.7966 H           1 N44       0.0514
     46 H12       -19.1918   43.7796  -10.1610 H           1 N44       0.0292
     47 H13       -20.2302   42.4439  -10.3332 H           1 N44       0.0292
     48 H14       -20.5889   44.7027   -8.5605 H           1 N44       0.0725
     49 H15       -19.6340   34.7816   -8.3869 H           1 N44       0.0973
     50 H16       -21.3686   34.8001   -8.0087 H           1 N44       0.0973
     51 H17       -23.5260   44.8001   -1.5362 H           1 N44       0.0683
     52 H18       -22.7446   43.7357   -0.3841 H           1 N44       0.0683
     53 H19       -22.1255   43.1340   -5.7117 H           1 N44       0.0995
     54 H20       -23.6886   43.1325   -6.5196 H           1 N44       0.0995
     55 H21       -19.9800   41.8169   -7.9326 H           1 N44       0.0966
     56 H22       -20.4775   41.5062   -6.3515 H           1 N44       0.0966
     57 H23       -22.6170   42.8243   -9.4923 H           1 N44       0.0998
     58 H24       -22.7653   44.0752   -8.3156 H           1 N44       0.0998
     59 H25       -22.5453   42.0811   -1.8994 H           1 N44       0.1869
     60 H26       -22.7365   41.4528   -7.9804 H           1 N44       0.2082
@<TRIPOS>BOND
     1     3     1  ar
     2     4     1  ar
     3     5     2  ar
     4     6     2  ar
     5     7     3  ar
     6     8     4  ar
     7     9     5  ar
     8    12     6  ar
     9    14     7  ar
    10    14     8  ar
    11    15     9  ar
    12    10    11  ar
    13    16    10  ar
    14    11    17  ar
    15    15    12  ar
    16    12    21   1
    17    16    13  ar
    18    13    18  ar
    19    13    22   1
    20    24    14   1
    21    25    15   1
    22    26    16   1
    23    18    17  ar
    24    17    33   1
    25    18    34   1
    26    20    19   2
    27    27    20   1
    28    21    28  am
    29    21    31   2
    30    22    30  ar
    31    22    32  ar
    32    23    33   1
    33    34    23   1
    34    28    24   1
    35    29    25   1
    36    29    26   1
    37    27    29   1
    38     1    35   1
    39     2    36   1
    40     3    37   1
    41     4    38   1
    42     5    39   1
    43     6    40   1
    44     7    41   1
    45     8    42   1
    46     9    43   1
    47    10    44   1
    48    11    45   1
    49    19    46   1
    50    19    47   1
    51    20    48   1
    52    23    49   1
    53    23    50   1
    54    24    51   1
    55    24    52   1
    56    25    53   1
    57    25    54   1
    58    26    55   1
    59    26    56   1
    60    27    57   1
    61    27    58   1
    62    28    59   1
    63    29    60   1
@<TRIPOS>SUBSTRUCTURE
     1  N44      1

