@<TRIPOS>MOLECULE
3zsx_ligand_065
    60    63
SMALL
GAST_HUCK
****
This file was generated by PARSER (from files_GN.cpp)

@<TRIPOS>ATOM
      1 C1        -11.5792   47.7787    5.8754 C.ar        1 N44      -0.0687
      2 C2         -9.6475   51.8783   -1.9135 C.ar        1 N44      -0.0630
      3 C3        -12.4486   48.8686    6.0788 C.ar        1 N44      -0.0685
      4 C4        -11.1397   47.4743    4.5729 C.ar        1 N44      -0.0685
      5 C5         -9.0517   50.7734   -2.5405 C.ar        1 N44      -0.0640
      6 C6        -10.1889   51.7442   -0.6240 C.ar        1 N44      -0.0483
      7 C7        -12.8584   49.6564    4.9902 C.ar        1 N44      -0.0584
      8 C8        -11.5573   48.2630    3.4836 C.ar        1 N44      -0.0584
      9 C9         -9.0148   49.5301   -1.8854 C.ar        1 N44      -0.0493
     10 C10       -12.9499   46.0110   -2.3870 C.ar        1 N44      -0.0712
     11 C11       -13.9970   45.1670   -2.8067 C.ar        1 N44      -0.0449
     12 C12       -10.1461   50.5035    0.0560 C.ar        1 N44       0.0564
     13 C13       -13.9992   46.2646   -0.1837 C.ar        1 N44       0.0376
     14 C14       -12.4047   49.3840    3.6771 C.ar        1 N44      -0.0211
     15 C15        -9.5593   49.3675   -0.5843 C.ar        1 N44       0.0219
     16 C16       -12.9338   46.5799   -1.0854 C.ar        1 N44      -0.0032
     17 C17       -15.0407   44.8886   -1.9148 C.ar        1 N44       0.1200
     18 C18       -15.0380   45.4162   -0.6319 C.ar        1 N44       0.1327
     19 C19        -9.6303   45.0634    2.4926 C.2         1 N44      -0.1125
     20 C20        -9.4001   45.3582    1.2049 C.2         1 N44      -0.0447
     21 C21       -10.7304   50.4372    1.3043 C.2         1 N44       0.2021
     22 C22       -14.0617   46.7311    1.1470 C.2         1 N44       0.0515
     23 C23       -16.8615   44.2802   -0.9231 C.3         1 N44       0.1864
     24 C24       -12.8827   50.2061    2.5305 C.3         1 N44       0.0638
     25 C25        -9.4815   48.0067    0.0319 C.3         1 N44       0.0086
     26 C26       -11.8234   47.5301   -0.7442 C.3         1 N44       0.0003
     27 C27       -10.4510   45.6547    0.2379 C.3         1 N44      -0.0011
     28 N28       -12.0511   50.3357    1.3727 N.am        1 N44      -0.2760
     29 N29       -10.4333   46.9715   -0.5153 N.4         1 N44       0.2715
     30 O30       -13.3999   46.0597    2.1117 O.co2       1 N44      -0.5668
     31 O31       -10.0107   50.3878    2.2900 O.2         1 N44      -0.3884
     32 O32       -15.0873   47.5102    1.5542 O.co2       1 N44      -0.5668
     33 O33       -16.1053   44.0913   -2.1338 O.3         1 N44      -0.2947
     34 O34       -16.0787   44.9424    0.0850 O.3         1 N44      -0.2890
     35 H1        -11.2827   47.2042    6.6678 H           1 N44       0.0559
     36 H2         -9.6927   52.7775   -2.3996 H           1 N44       0.0572
     37 H3        -12.7826   49.0793    7.0200 H           1 N44       0.0599
     38 H4        -10.5228   46.6711    4.4182 H           1 N44       0.0599
     39 H5         -8.6481   50.8722   -3.4756 H           1 N44       0.0635
     40 H6        -10.6204   52.5648   -0.1874 H           1 N44       0.0651
     41 H7        -13.5043   50.4345    5.1623 H           1 N44       0.0557
     42 H8        -11.2557   48.0068    2.5464 H           1 N44       0.0557
     43 H9         -8.5797   48.7401   -2.3617 H           1 N44       0.0570
     44 H10       -12.1943   46.2101   -3.0461 H           1 N44       0.0445
     45 H11       -14.0002   44.7623   -3.7474 H           1 N44       0.0514
     46 H12        -8.8772   44.8361    3.0955 H           1 N44       0.0292
     47 H13       -10.5511   45.0516    2.8634 H           1 N44       0.0292
     48 H14        -8.4573   45.3625    0.8875 H           1 N44       0.0725
     49 H15       -17.1821   43.3088   -0.5438 H           1 N44       0.0973
     50 H16       -17.7522   44.8790   -1.1368 H           1 N44       0.0973
     51 H17       -13.1333   51.2181    2.8579 H           1 N44       0.0683
     52 H18       -13.8112   49.7464    2.1779 H           1 N44       0.0683
     53 H19        -9.6084   48.0671    1.1130 H           1 N44       0.0995
     54 H20        -8.4537   47.6618   -0.1175 H           1 N44       0.0995
     55 H21       -12.0929   48.0955    0.1475 H           1 N44       0.0966
     56 H22       -11.7788   48.2454   -1.5688 H           1 N44       0.0966
     57 H23       -11.4070   45.5144    0.7414 H           1 N44       0.0998
     58 H24       -10.3991   44.8679   -0.5194 H           1 N44       0.0998
     59 H25       -12.5198   50.3521    0.5225 H           1 N44       0.1869
     60 H26       -10.0702   46.7490   -1.4447 H           1 N44       0.2082
@<TRIPOS>BOND
     1     3     1  ar
     2     4     1  ar
     3     5     2  ar
     4     6     2  ar
     5     7     3  ar
     6     8     4  ar
     7     9     5  ar
     8    12     6  ar
     9    14     7  ar
    10    14     8  ar
    11    15     9  ar
    12    10    11  ar
    13    16    10  ar
    14    11    17  ar
    15    15    12  ar
    16    12    21   1
    17    16    13  ar
    18    13    18  ar
    19    13    22   1
    20    24    14   1
    21    25    15   1
    22    26    16   1
    23    18    17  ar
    24    17    33   1
    25    18    34   1
    26    20    19   2
    27    27    20   1
    28    21    28  am
    29    21    31   2
    30    22    30  ar
    31    22    32  ar
    32    23    33   1
    33    34    23   1
    34    28    24   1
    35    29    25   1
    36    29    26   1
    37    27    29   1
    38     1    35   1
    39     2    36   1
    40     3    37   1
    41     4    38   1
    42     5    39   1
    43     6    40   1
    44     7    41   1
    45     8    42   1
    46     9    43   1
    47    10    44   1
    48    11    45   1
    49    19    46   1
    50    19    47   1
    51    20    48   1
    52    23    49   1
    53    23    50   1
    54    24    51   1
    55    24    52   1
    56    25    53   1
    57    25    54   1
    58    26    55   1
    59    26    56   1
    60    27    57   1
    61    27    58   1
    62    28    59   1
    63    29    60   1
@<TRIPOS>SUBSTRUCTURE
     1  N44      1

