@<TRIPOS>MOLECULE
3zsx_ligand_093
    60    63
SMALL
GAST_HUCK
****
This file was generated by PARSER (from files_GN.cpp)

@<TRIPOS>ATOM
      1 C1        -23.1581   44.8471   -2.5399 C.ar        1 N44      -0.0687
      2 C2        -15.7294   47.3656   -6.5840 C.ar        1 N44      -0.0630
      3 C3        -22.2345   44.1839   -1.7103 C.ar        1 N44      -0.0685
      4 C4        -22.7926   46.0473   -3.1739 C.ar        1 N44      -0.0685
      5 C5        -16.5152   48.0180   -7.5425 C.ar        1 N44      -0.0640
      6 C6        -16.3459   46.6811   -5.5247 C.ar        1 N44      -0.0483
      7 C7        -20.9454   44.7168   -1.5220 C.ar        1 N44      -0.0584
      8 C8        -21.5001   46.5752   -2.9881 C.ar        1 N44      -0.0584
      9 C9        -17.9150   47.9518   -7.4596 C.ar        1 N44      -0.0493
     10 C10       -21.9106   49.7292   -7.6749 C.ar        1 N44      -0.0712
     11 C11       -21.7912   51.1274   -7.5767 C.ar        1 N44      -0.0449
     12 C12       -17.7588   46.6153   -5.4292 C.ar        1 N44       0.0564
     13 C13       -20.2834   49.6758   -9.5222 C.ar        1 N44       0.0376
     14 C14       -20.5503   45.9056   -2.1822 C.ar        1 N44      -0.0211
     15 C15       -18.5699   47.2217   -6.4360 C.ar        1 N44       0.0219
     16 C16       -21.1577   48.9781   -8.6220 C.ar        1 N44      -0.0032
     17 C17       -20.8963   51.7841   -8.4253 C.ar        1 N44       0.1200
     18 C18       -20.1665   51.0816   -9.3756 C.ar        1 N44       0.1327
     19 C19       -19.8409   43.3498   -7.2763 C.2         1 N44      -0.1125
     20 C20       -20.7007   44.2431   -6.7704 C.2         1 N44      -0.0447
     21 C21       -18.2894   46.0507   -4.2929 C.2         1 N44       0.2021
     22 C22       -19.5409   49.0492  -10.5565 C.2         1 N44       0.0515
     23 C23       -19.7290   53.2154   -9.5389 C.3         1 N44       0.1864
     24 C24       -19.1779   46.4536   -2.0309 C.3         1 N44       0.0638
     25 C25       -20.0705   47.1808   -6.4472 C.3         1 N44       0.0086
     26 C26       -21.4162   47.5001   -8.6335 C.3         1 N44       0.0003
     27 C27       -21.3539   45.2856   -7.5487 C.3         1 N44      -0.0011
     28 N28       -18.5891   46.8430   -3.2738 N.am        1 N44      -0.2760
     29 N29       -20.6031   46.5848   -7.7337 N.4         1 N44       0.2715
     30 O30       -19.0101   47.8109  -10.4342 O.co2       1 N44      -0.5668
     31 O31       -18.5340   44.8496   -4.2944 O.2         1 N44      -0.3884
     32 O32       -19.2660   49.6912  -11.7160 O.co2       1 N44      -0.5668
     33 O33       -20.6420   53.1045   -8.4344 O.3         1 N44      -0.2947
     34 O34       -19.3609   51.9241  -10.0598 O.3         1 N44      -0.2890
     35 H1        -24.0977   44.4647   -2.6708 H           1 N44       0.0559
     36 H2        -14.7106   47.4226   -6.6386 H           1 N44       0.0572
     37 H3        -22.5020   43.3136   -1.2414 H           1 N44       0.0599
     38 H4        -23.4646   46.5376   -3.7701 H           1 N44       0.0599
     39 H5        -16.0711   48.5537   -8.2935 H           1 N44       0.0635
     40 H6        -15.7495   46.2586   -4.8069 H           1 N44       0.0651
     41 H7        -20.2981   44.2360   -0.8923 H           1 N44       0.0557
     42 H8        -21.2525   47.4455   -3.4640 H           1 N44       0.0557
     43 H9        -18.4578   48.4522   -8.1623 H           1 N44       0.0570
     44 H10       -22.5668   49.2679   -7.0415 H           1 N44       0.0445
     45 H11       -22.3359   51.6488   -6.8858 H           1 N44       0.0514
     46 H12       -19.5162   42.5994   -6.7120 H           1 N44       0.0292
     47 H13       -19.5585   43.3883   -8.2257 H           1 N44       0.0292
     48 H14       -21.0063   44.0984   -5.8331 H           1 N44       0.0725
     49 H15       -18.8332   53.7423   -9.2024 H           1 N44       0.0973
     50 H16       -20.1977   53.8034  -10.3334 H           1 N44       0.0973
     51 H17       -18.5110   45.7474   -1.5306 H           1 N44       0.0683
     52 H18       -19.2455   47.3380   -1.3982 H           1 N44       0.0683
     53 H19       -20.4136   48.2014   -6.2823 H           1 N44       0.0995
     54 H20       -20.4598   46.6174   -5.5952 H           1 N44       0.0995
     55 H21       -21.3070   47.1408   -9.6569 H           1 N44       0.0966
     56 H22       -22.4864   47.3682   -8.4257 H           1 N44       0.0966
     57 H23       -22.3063   45.5044   -7.0505 H           1 N44       0.0998
     58 H24       -21.6059   44.8678   -8.5310 H           1 N44       0.0998
     59 H25       -18.3858   47.7889   -3.3803 H           1 N44       0.1869
     60 H26       -19.7771   46.3129   -8.2679 H           1 N44       0.2082
@<TRIPOS>BOND
     1     3     1  ar
     2     4     1  ar
     3     5     2  ar
     4     6     2  ar
     5     7     3  ar
     6     8     4  ar
     7     9     5  ar
     8    12     6  ar
     9    14     7  ar
    10    14     8  ar
    11    15     9  ar
    12    10    11  ar
    13    16    10  ar
    14    11    17  ar
    15    15    12  ar
    16    12    21   1
    17    16    13  ar
    18    13    18  ar
    19    13    22   1
    20    24    14   1
    21    25    15   1
    22    26    16   1
    23    18    17  ar
    24    17    33   1
    25    18    34   1
    26    20    19   2
    27    27    20   1
    28    21    28  am
    29    21    31   2
    30    22    30  ar
    31    22    32  ar
    32    23    33   1
    33    34    23   1
    34    28    24   1
    35    29    25   1
    36    29    26   1
    37    27    29   1
    38     1    35   1
    39     2    36   1
    40     3    37   1
    41     4    38   1
    42     5    39   1
    43     6    40   1
    44     7    41   1
    45     8    42   1
    46     9    43   1
    47    10    44   1
    48    11    45   1
    49    19    46   1
    50    19    47   1
    51    20    48   1
    52    23    49   1
    53    23    50   1
    54    24    51   1
    55    24    52   1
    56    25    53   1
    57    25    54   1
    58    26    55   1
    59    26    56   1
    60    27    57   1
    61    27    58   1
    62    28    59   1
    63    29    60   1
@<TRIPOS>SUBSTRUCTURE
     1  N44      1

