@<TRIPOS>MOLECULE
3zsx_ligand_051
    60    63
SMALL
GAST_HUCK
****
This file was generated by PARSER (from files_GN.cpp)

@<TRIPOS>ATOM
      1 C1        -24.1506   47.7989   -3.1382 C.ar        1 N44      -0.0687
      2 C2        -17.6830   44.2260   -5.4992 C.ar        1 N44      -0.0630
      3 C3        -23.4875   46.5670   -2.9892 C.ar        1 N44      -0.0685
      4 C4        -23.4845   48.9971   -2.8306 C.ar        1 N44      -0.0685
      5 C5        -16.3446   43.8619   -5.2892 C.ar        1 N44      -0.0640
      6 C6        -18.3797   44.9399   -4.5143 C.ar        1 N44      -0.0483
      7 C7        -22.1571   46.5348   -2.5300 C.ar        1 N44      -0.0584
      8 C8        -22.1524   48.9663   -2.3822 C.ar        1 N44      -0.0584
      9 C9        -15.7014   44.2354   -4.0941 C.ar        1 N44      -0.0493
     10 C10       -12.0551   45.3830   -1.9051 C.ar        1 N44      -0.0712
     11 C11       -11.0123   44.4370   -1.8296 C.ar        1 N44      -0.0449
     12 C12       -17.7660   45.2551   -3.2741 C.ar        1 N44       0.0564
     13 C13       -12.4451   45.1803    0.5012 C.ar        1 N44       0.0376
     14 C14       -21.4715   47.7372   -2.2244 C.ar        1 N44      -0.0211
     15 C15       -16.3941   44.9172   -3.0632 C.ar        1 N44       0.0219
     16 C16       -12.7908   45.7704   -0.7520 C.ar        1 N44      -0.0032
     17 C17       -10.6883   43.8798   -0.5872 C.ar        1 N44       0.1200
     18 C18       -11.3844   44.2474    0.5534 C.ar        1 N44       0.1327
     19 C19       -16.0071   50.2173   -2.1537 C.2         1 N44      -0.1125
     20 C20       -15.6436   49.0628   -1.5736 C.2         1 N44      -0.0447
     21 C21       -18.5484   45.8692   -2.3066 C.2         1 N44       0.2021
     22 C22       -13.0689   45.4997    1.7145 C.2         1 N44       0.0515
     23 C23       -10.0084   42.6466    1.0469 C.3         1 N44       0.1864
     24 C24       -20.0806   47.6966   -1.7050 C.3         1 N44       0.0638
     25 C25       -15.6048   45.2916   -1.8414 C.3         1 N44       0.0086
     26 C26       -13.8452   46.8363   -0.9098 C.3         1 N44       0.0003
     27 C27       -15.8804   47.7490   -2.1716 C.3         1 N44      -0.0011
     28 N28       -19.2234   46.9688   -2.5917 N.am        1 N44      -0.2760
     29 N29       -14.8908   46.6161   -1.9744 N.4         1 N44       0.2715
     30 O30       -14.3583   45.1530    1.9401 O.co2       1 N44      -0.5668
     31 O31       -18.6857   45.3022   -1.2231 O.2         1 N44      -0.3884
     32 O32       -12.5055   46.4424    2.5056 O.co2       1 N44      -0.5668
     33 O33        -9.7191   42.9879   -0.3228 O.3         1 N44      -0.2947
     34 O34       -10.8995   43.6060    1.6430 O.3         1 N44      -0.2890
     35 H1        -25.1190   47.8226   -3.4671 H           1 N44       0.0559
     36 H2        -18.1676   43.9494   -6.3582 H           1 N44       0.0572
     37 H3        -23.9724   45.6977   -3.2152 H           1 N44       0.0599
     38 H4        -23.9672   49.8919   -2.9278 H           1 N44       0.0599
     39 H5        -15.8409   43.3393   -6.0070 H           1 N44       0.0635
     40 H6        -19.3614   45.1853   -4.6943 H           1 N44       0.0651
     41 H7        -21.6952   45.6302   -2.4180 H           1 N44       0.0557
     42 H8        -21.6859   49.8476   -2.1571 H           1 N44       0.0557
     43 H9        -14.7188   43.9775   -3.9797 H           1 N44       0.0570
     44 H10       -12.2717   45.7971   -2.8230 H           1 N44       0.0445
     45 H11       -10.4905   44.1699   -2.6711 H           1 N44       0.0514
     46 H12       -15.9841   51.0645   -1.6352 H           1 N44       0.0292
     47 H13       -16.3713   50.2409   -3.0809 H           1 N44       0.0292
     48 H14       -15.3833   49.0938   -0.6068 H           1 N44       0.0725
     49 H15        -9.0789   42.6050    1.6206 H           1 N44       0.0973
     50 H16       -10.4743   41.6556    1.0834 H           1 N44       0.0973
     51 H17       -20.1091   47.2666   -0.6967 H           1 N44       0.0683
     52 H18       -19.6632   48.7042   -1.6113 H           1 N44       0.0683
     53 H19       -14.8949   44.4828   -1.6614 H           1 N44       0.0995
     54 H20       -16.2282   45.3146   -0.9480 H           1 N44       0.0995
     55 H21       -13.2832   47.7397   -1.1556 H           1 N44       0.0966
     56 H22       -14.3535   47.0313    0.0319 H           1 N44       0.0966
     57 H23       -16.0016   47.8616   -3.2574 H           1 N44       0.0998
     58 H24       -16.8656   47.4537   -1.7794 H           1 N44       0.0998
     59 H25       -19.1066   47.3463   -3.4850 H           1 N44       0.1869
     60 H26       -14.3594   46.5694   -2.8497 H           1 N44       0.2082
@<TRIPOS>BOND
     1     3     1  ar
     2     4     1  ar
     3     5     2  ar
     4     6     2  ar
     5     7     3  ar
     6     8     4  ar
     7     9     5  ar
     8    12     6  ar
     9    14     7  ar
    10    14     8  ar
    11    15     9  ar
    12    10    11  ar
    13    16    10  ar
    14    11    17  ar
    15    15    12  ar
    16    12    21   1
    17    16    13  ar
    18    13    18  ar
    19    13    22   1
    20    24    14   1
    21    25    15   1
    22    26    16   1
    23    18    17  ar
    24    17    33   1
    25    18    34   1
    26    20    19   2
    27    27    20   1
    28    21    28  am
    29    21    31   2
    30    22    30  ar
    31    22    32  ar
    32    23    33   1
    33    34    23   1
    34    28    24   1
    35    29    25   1
    36    29    26   1
    37    27    29   1
    38     1    35   1
    39     2    36   1
    40     3    37   1
    41     4    38   1
    42     5    39   1
    43     6    40   1
    44     7    41   1
    45     8    42   1
    46     9    43   1
    47    10    44   1
    48    11    45   1
    49    19    46   1
    50    19    47   1
    51    20    48   1
    52    23    49   1
    53    23    50   1
    54    24    51   1
    55    24    52   1
    56    25    53   1
    57    25    54   1
    58    26    55   1
    59    26    56   1
    60    27    57   1
    61    27    58   1
    62    28    59   1
    63    29    60   1
@<TRIPOS>SUBSTRUCTURE
     1  N44      1

