@<TRIPOS>MOLECULE
3zsx_ligand_000
    60    63
SMALL
GAST_HUCK
****
This file was generated by PARSER (from files_GN.cpp)

@<TRIPOS>ATOM
      1 C1        -13.9188   54.3955   -7.0595 C.ar        1 N44      -0.0687
      2 C2        -15.5018   46.7708   -6.7677 C.ar        1 N44      -0.0630
      3 C3        -15.0845   53.7183   -7.4515 C.ar        1 N44      -0.0685
      4 C4        -13.4250   54.2470   -5.7503 C.ar        1 N44      -0.0685
      5 C5        -15.6238   45.6032   -6.0088 C.ar        1 N44      -0.0640
      6 C6        -15.7647   48.0126   -6.1809 C.ar        1 N44      -0.0483
      7 C7        -15.7573   52.8891   -6.5381 C.ar        1 N44      -0.0584
      8 C8        -14.0977   53.4189   -4.8329 C.ar        1 N44      -0.0584
      9 C9        -15.9485   45.6887   -4.6480 C.ar        1 N44      -0.0493
     10 C10       -12.1811   44.9917   -2.1320 C.ar        1 N44      -0.0712
     11 C11       -11.1079   44.1659   -1.7526 C.ar        1 N44      -0.0449
     12 C12       -16.1157   48.1263   -4.8040 C.ar        1 N44       0.0564
     13 C13       -12.7547   45.3839    0.2166 C.ar        1 N44       0.0376
     14 C14       -15.2669   52.7262   -5.2196 C.ar        1 N44      -0.0211
     15 C15       -16.1779   46.9327   -4.0081 C.ar        1 N44       0.0219
     16 C16       -13.0261   45.6059   -1.1670 C.ar        1 N44      -0.0032
     17 C17       -10.8749   43.9472   -0.3880 C.ar        1 N44       0.1200
     18 C18       -11.6846   44.5310    0.5734 C.ar        1 N44       0.1327
     19 C19       -18.2827   44.5811   -0.9021 C.2         1 N44      -0.1125
     20 C20       -16.9968   44.3291   -0.6093 C.2         1 N44      -0.0447
     21 C21       -16.4360   49.4001   -4.3119 C.2         1 N44       0.2021
     22 C22       -13.4972   45.9769    1.2518 C.2         1 N44       0.0515
     23 C23       -10.2573   43.2153    1.5394 C.3         1 N44       0.1864
     24 C24       -15.9722   51.8181   -4.2784 C.3         1 N44       0.0638
     25 C25       -16.4352   46.9060   -2.5203 C.3         1 N44       0.0086
     26 C26       -14.1217   46.5076   -1.6484 C.3         1 N44       0.0003
     27 C27       -15.8897   44.5959   -1.5254 C.3         1 N44      -0.0011
     28 N28       -15.6972   50.4617   -4.6291 N.am        1 N44      -0.2760
     29 N29       -15.5729   46.0728   -1.5895 N.4         1 N44       0.2715
     30 O30       -14.4173   45.2202    1.8849 O.co2       1 N44      -0.5668
     31 O31       -17.5075   49.5654   -3.7264 O.2         1 N44      -0.3884
     32 O32       -12.9440   46.9821    1.9676 O.co2       1 N44      -0.5668
     33 O33        -9.9014   43.1889    0.1459 O.3         1 N44      -0.2947
     34 O34       -11.2920   44.1787    1.8148 O.3         1 N44      -0.2890
     35 H1        -13.4253   54.9877   -7.7290 H           1 N44       0.0559
     36 H2        -15.2549   46.7183   -7.7589 H           1 N44       0.0572
     37 H3        -15.4461   53.8216   -8.4010 H           1 N44       0.0599
     38 H4        -12.5761   54.7380   -5.4683 H           1 N44       0.0599
     39 H5        -15.4552   44.6873   -6.4380 H           1 N44       0.0635
     40 H6        -15.6991   48.8456   -6.7768 H           1 N44       0.0651
     41 H7        -16.6045   52.3964   -6.8353 H           1 N44       0.0557
     42 H8        -13.7212   53.3200   -3.8854 H           1 N44       0.0557
     43 H9        -15.9447   44.8131   -4.1389 H           1 N44       0.0570
     44 H10       -12.3268   45.1509   -3.1340 H           1 N44       0.0445
     45 H11       -10.5080   43.7250   -2.4520 H           1 N44       0.0514
     46 H12       -19.0138   44.3101   -0.2824 H           1 N44       0.0292
     47 H13       -18.5359   44.9876   -1.7766 H           1 N44       0.0292
     48 H14       -16.8060   43.8539    0.2519 H           1 N44       0.0725
     49 H15        -9.3745   43.4618    2.1328 H           1 N44       0.0973
     50 H16       -10.6016   42.2194    1.8292 H           1 N44       0.0973
     51 H17       -17.0451   52.0267   -4.3480 H           1 N44       0.0683
     52 H18       -15.6648   51.9866   -3.2389 H           1 N44       0.0683
     53 H19       -17.4882   46.6375   -2.3882 H           1 N44       0.0995
     54 H20       -16.3351   47.9145   -2.1129 H           1 N44       0.0995
     55 H21       -13.8763   46.8083   -2.6659 H           1 N44       0.0966
     56 H22       -14.0476   47.4202   -1.0564 H           1 N44       0.0966
     57 H23       -16.1407   44.1521   -2.4990 H           1 N44       0.0998
     58 H24       -15.0303   44.0413   -1.1327 H           1 N44       0.0998
     59 H25       -14.8911   50.3040   -5.1576 H           1 N44       0.1869
     60 H26       -15.8866   46.3842   -0.6577 H           1 N44       0.2082
@<TRIPOS>BOND
     1     3     1  ar
     2     4     1  ar
     3     5     2  ar
     4     6     2  ar
     5     7     3  ar
     6     8     4  ar
     7     9     5  ar
     8    12     6  ar
     9    14     7  ar
    10    14     8  ar
    11    15     9  ar
    12    10    11  ar
    13    16    10  ar
    14    11    17  ar
    15    15    12  ar
    16    12    21   1
    17    16    13  ar
    18    13    18  ar
    19    13    22   1
    20    24    14   1
    21    25    15   1
    22    26    16   1
    23    18    17  ar
    24    17    33   1
    25    18    34   1
    26    20    19   2
    27    27    20   1
    28    21    28  am
    29    21    31   2
    30    22    30  ar
    31    22    32  ar
    32    23    33   1
    33    34    23   1
    34    28    24   1
    35    29    25   1
    36    29    26   1
    37    27    29   1
    38     1    35   1
    39     2    36   1
    40     3    37   1
    41     4    38   1
    42     5    39   1
    43     6    40   1
    44     7    41   1
    45     8    42   1
    46     9    43   1
    47    10    44   1
    48    11    45   1
    49    19    46   1
    50    19    47   1
    51    20    48   1
    52    23    49   1
    53    23    50   1
    54    24    51   1
    55    24    52   1
    56    25    53   1
    57    25    54   1
    58    26    55   1
    59    26    56   1
    60    27    57   1
    61    27    58   1
    62    28    59   1
    63    29    60   1
@<TRIPOS>SUBSTRUCTURE
     1  N44      1

