@<TRIPOS>MOLECULE
3zsx_ligand_059
    60    63
SMALL
GAST_HUCK
****
This file was generated by PARSER (from files_GN.cpp)

@<TRIPOS>ATOM
      1 C1        -11.5099   41.3889   -1.5212 C.ar        1 N44      -0.0687
      2 C2        -14.3220   49.5600   -0.0142 C.ar        1 N44      -0.0630
      3 C3        -12.8664   41.4786   -1.1607 C.ar        1 N44      -0.0685
      4 C4        -10.9504   42.3429   -2.3908 C.ar        1 N44      -0.0685
      5 C5        -13.0486   50.1430    0.0176 C.ar        1 N44      -0.0640
      6 C6        -14.4699   48.2140   -0.3749 C.ar        1 N44      -0.0483
      7 C7        -13.6542   42.5404   -1.6487 C.ar        1 N44      -0.0584
      8 C8        -11.7415   43.4016   -2.8823 C.ar        1 N44      -0.0584
      9 C9        -11.9276   49.3810   -0.3391 C.ar        1 N44      -0.0493
     10 C10        -7.7834   48.8058   -1.4612 C.ar        1 N44      -0.0712
     11 C11        -7.0134   49.9634   -1.6664 C.ar        1 N44      -0.0449
     12 C12       -13.3491   47.4214   -0.7156 C.ar        1 N44       0.0564
     13 C13        -6.4226   48.2077    0.4905 C.ar        1 N44       0.0376
     14 C14       -13.1062   43.5218   -2.5117 C.ar        1 N44      -0.0211
     15 C15       -12.0437   48.0064   -0.6770 C.ar        1 N44       0.0219
     16 C16        -7.5130   47.9141   -0.3899 C.ar        1 N44      -0.0032
     17 C17        -5.9402   50.2286   -0.8035 C.ar        1 N44       0.1200
     18 C18        -5.6478   49.3674    0.2436 C.ar        1 N44       0.1327
     19 C19       -10.8601   44.1538    2.2239 C.2         1 N44      -0.1125
     20 C20       -10.3254   44.9478    1.2812 C.2         1 N44      -0.0447
     21 C21       -13.5736   46.1231   -1.1255 C.2         1 N44       0.2021
     22 C22        -6.0614   47.4100    1.6017 C.2         1 N44       0.0515
     23 C23        -4.0725   50.8519    0.0432 C.3         1 N44       0.1864
     24 C24       -13.9400   44.6407   -3.0360 C.3         1 N44       0.0638
     25 C25       -10.7844   47.2637   -1.0093 C.3         1 N44       0.0086
     26 C26        -8.4259   46.7319   -0.2254 C.3         1 N44       0.0003
     27 C27       -10.4074   46.3999    1.3262 C.3         1 N44      -0.0011
     28 N28       -13.6576   45.8861   -2.4278 N.am        1 N44      -0.2760
     29 N29        -9.8325   47.1486    0.1532 N.4         1 N44       0.2715
     30 O30        -5.5400   46.1788    1.4083 O.co2       1 N44      -0.5668
     31 O31       -13.6985   45.2258   -0.2907 O.2         1 N44      -0.3884
     32 O32        -5.8689   47.9792    2.8181 O.co2       1 N44      -0.5668
     33 O33        -5.1020   51.2826   -0.8594 O.3         1 N44      -0.2947
     34 O34        -4.5519   49.8066    0.9075 O.3         1 N44      -0.2890
     35 H1        -10.9395   40.6125   -1.1661 H           1 N44       0.0559
     36 H2        -15.1414   50.1205    0.2180 H           1 N44       0.0572
     37 H3        -13.2802   40.7798   -0.5360 H           1 N44       0.0599
     38 H4         -9.9618   42.2684   -2.6481 H           1 N44       0.0599
     39 H5        -12.9362   51.1177    0.2811 H           1 N44       0.0635
     40 H6        -15.4166   47.8244   -0.4382 H           1 N44       0.0651
     41 H7        -14.6364   42.5888   -1.3812 H           1 N44       0.0557
     42 H8        -11.3087   44.0911   -3.5003 H           1 N44       0.0557
     43 H9        -11.0083   49.8310   -0.3288 H           1 N44       0.0570
     44 H10        -8.5528   48.6197   -2.1027 H           1 N44       0.0445
     45 H11        -7.2249   50.5934   -2.4401 H           1 N44       0.0514
     46 H12       -10.7471   43.1673    2.1760 H           1 N44       0.0292
     47 H13       -11.3862   44.5362    2.9800 H           1 N44       0.0292
     48 H14        -9.8185   44.5093    0.5434 H           1 N44       0.0725
     49 H15        -3.7370   51.6944    0.6439 H           1 N44       0.0973
     50 H16        -3.2231   50.4859   -0.5395 H           1 N44       0.0973
     51 H17       -15.0051   44.4198   -2.9088 H           1 N44       0.0683
     52 H18       -13.7595   44.7240   -4.1136 H           1 N44       0.0683
     53 H19       -10.3102   47.8118   -1.8326 H           1 N44       0.0995
     54 H20       -10.9823   46.2544   -1.3920 H           1 N44       0.0995
     55 H21        -8.0160   46.0355    0.5100 H           1 N44       0.0966
     56 H22        -8.4338   46.1478   -1.1544 H           1 N44       0.0966
     57 H23        -9.9074   46.7379    2.2395 H           1 N44       0.0998
     58 H24       -11.4639   46.6745    1.4340 H           1 N44       0.0998
     59 H25       -13.6043   46.6588   -3.0104 H           1 N44       0.1869
     60 H26        -9.7177   48.1026    0.5150 H           1 N44       0.2082
@<TRIPOS>BOND
     1     3     1  ar
     2     4     1  ar
     3     5     2  ar
     4     6     2  ar
     5     7     3  ar
     6     8     4  ar
     7     9     5  ar
     8    12     6  ar
     9    14     7  ar
    10    14     8  ar
    11    15     9  ar
    12    10    11  ar
    13    16    10  ar
    14    11    17  ar
    15    15    12  ar
    16    12    21   1
    17    16    13  ar
    18    13    18  ar
    19    13    22   1
    20    24    14   1
    21    25    15   1
    22    26    16   1
    23    18    17  ar
    24    17    33   1
    25    18    34   1
    26    20    19   2
    27    27    20   1
    28    21    28  am
    29    21    31   2
    30    22    30  ar
    31    22    32  ar
    32    23    33   1
    33    34    23   1
    34    28    24   1
    35    29    25   1
    36    29    26   1
    37    27    29   1
    38     1    35   1
    39     2    36   1
    40     3    37   1
    41     4    38   1
    42     5    39   1
    43     6    40   1
    44     7    41   1
    45     8    42   1
    46     9    43   1
    47    10    44   1
    48    11    45   1
    49    19    46   1
    50    19    47   1
    51    20    48   1
    52    23    49   1
    53    23    50   1
    54    24    51   1
    55    24    52   1
    56    25    53   1
    57    25    54   1
    58    26    55   1
    59    26    56   1
    60    27    57   1
    61    27    58   1
    62    28    59   1
    63    29    60   1
@<TRIPOS>SUBSTRUCTURE
     1  N44      1

