@<TRIPOS>MOLECULE
3zsx_ligand_080
    60    63
SMALL
GAST_HUCK
****
This file was generated by PARSER (from files_GN.cpp)

@<TRIPOS>ATOM
      1 C1        -20.5240   41.1659   -8.4800 C.ar        1 N44      -0.0687
      2 C2        -16.3668   48.0575   -5.9402 C.ar        1 N44      -0.0630
      3 C3        -19.4654   40.3046   -8.1452 C.ar        1 N44      -0.0685
      4 C4        -20.5927   42.4452   -7.9015 C.ar        1 N44      -0.0685
      5 C5        -16.4167   48.5916   -4.6470 C.ar        1 N44      -0.0640
      6 C6        -16.2608   46.6716   -6.1208 C.ar        1 N44      -0.0483
      7 C7        -18.4791   40.7235   -7.2326 C.ar        1 N44      -0.0584
      8 C8        -19.6022   42.8684   -6.9939 C.ar        1 N44      -0.0584
      9 C9        -16.3134   47.7362   -3.5332 C.ar        1 N44      -0.0493
     10 C10       -12.9067   48.2167   -0.4822 C.ar        1 N44      -0.0712
     11 C11       -11.6222   48.7124   -0.2060 C.ar        1 N44      -0.0449
     12 C12       -16.1783   45.7970   -5.0073 C.ar        1 N44       0.0564
     13 C13       -12.5441   46.3126    1.0203 C.ar        1 N44       0.0376
     14 C14       -18.5238   42.0150   -6.6481 C.ar        1 N44      -0.0211
     15 C15       -16.1522   46.3393   -3.6806 C.ar        1 N44       0.0219
     16 C16       -13.3772   46.9947    0.0759 C.ar        1 N44      -0.0032
     17 C17       -10.7873   47.9803    0.6433 C.ar        1 N44       0.1200
     18 C18       -11.2392   46.8196    1.2534 C.ar        1 N44       0.1327
     19 C19       -12.4359   43.6149   -2.7202 C.2         1 N44      -0.1125
     20 C20       -12.3556   44.9155   -2.3979 C.2         1 N44      -0.0447
     21 C21       -16.1520   44.4452   -5.2862 C.2         1 N44       0.2021
     22 C22       -12.9660   45.1761    1.7546 C.2         1 N44       0.0515
     23 C23        -9.1572   47.1542    1.7803 C.3         1 N44       0.1864
     24 C24       -17.4622   42.3927   -5.6704 C.3         1 N44       0.0638
     25 C25       -15.9470   45.5003   -2.4464 C.3         1 N44       0.0086
     26 C26       -14.6718   46.4582   -0.4685 C.3         1 N44       0.0003
     27 C27       -13.4427   45.8541   -2.6540 C.3         1 N44      -0.0011
     28 N28       -17.3040   43.8003   -5.4307 N.am        1 N44      -0.2760
     29 N29       -14.6190   45.6223   -1.7299 N.4         1 N44       0.2715
     30 O30       -12.0760   44.2530    2.1933 O.co2       1 N44      -0.5668
     31 O31       -15.0581   43.8858   -5.3359 O.2         1 N44      -0.3884
     32 O32       -14.1689   45.1855    2.3717 O.co2       1 N44      -0.5668
     33 O33        -9.5364   48.3087    1.0119 O.3         1 N44      -0.2947
     34 O34       -10.2975   46.3395    2.0972 O.3         1 N44      -0.2890
     35 H1        -21.2434   40.8551   -9.1389 H           1 N44       0.0559
     36 H2        -16.4221   48.6781   -6.7536 H           1 N44       0.0572
     37 H3        -19.4137   39.3734   -8.5602 H           1 N44       0.0599
     38 H4        -21.3713   43.0658   -8.1406 H           1 N44       0.0599
     39 H5        -16.5168   49.6000   -4.5112 H           1 N44       0.0635
     40 H6        -16.2359   46.3093   -7.0781 H           1 N44       0.0651
     41 H7        -17.7257   40.0750   -6.9968 H           1 N44       0.0557
     42 H8        -19.6725   43.8033   -6.5830 H           1 N44       0.0557
     43 H9        -16.3550   48.1654   -2.6077 H           1 N44       0.0570
     44 H10       -13.4964   48.7556   -1.1218 H           1 N44       0.0445
     45 H11       -11.2945   49.5826   -0.6347 H           1 N44       0.0514
     46 H12       -11.6575   43.0113   -2.5885 H           1 N44       0.0292
     47 H13       -13.2612   43.2347   -3.1224 H           1 N44       0.0292
     48 H14       -11.4902   45.2577   -2.0375 H           1 N44       0.0725
     49 H15        -8.6766   47.4792    2.7049 H           1 N44       0.0973
     50 H16        -8.4384   46.5613    1.2047 H           1 N44       0.0973
     51 H17       -16.5137   41.9678   -6.0133 H           1 N44       0.0683
     52 H18       -17.7054   41.9176   -4.7202 H           1 N44       0.0683
     53 H19       -16.0463   44.4419   -2.6949 H           1 N44       0.0995
     54 H20       -16.7748   45.6924   -1.7560 H           1 N44       0.0995
     55 H21       -15.3498   47.2989   -0.6082 H           1 N44       0.0966
     56 H22       -15.1510   45.8470    0.2985 H           1 N44       0.0966
     57 H23       -13.7112   45.7136   -3.7101 H           1 N44       0.0998
     58 H24       -13.0730   46.8799   -2.5636 H           1 N44       0.0998
     59 H25       -18.1161   44.3296   -5.3209 H           1 N44       0.1869
     60 H26       -14.4663   44.6719   -1.3825 H           1 N44       0.2082
@<TRIPOS>BOND
     1     3     1  ar
     2     4     1  ar
     3     5     2  ar
     4     6     2  ar
     5     7     3  ar
     6     8     4  ar
     7     9     5  ar
     8    12     6  ar
     9    14     7  ar
    10    14     8  ar
    11    15     9  ar
    12    10    11  ar
    13    16    10  ar
    14    11    17  ar
    15    15    12  ar
    16    12    21   1
    17    16    13  ar
    18    13    18  ar
    19    13    22   1
    20    24    14   1
    21    25    15   1
    22    26    16   1
    23    18    17  ar
    24    17    33   1
    25    18    34   1
    26    20    19   2
    27    27    20   1
    28    21    28  am
    29    21    31   2
    30    22    30  ar
    31    22    32  ar
    32    23    33   1
    33    34    23   1
    34    28    24   1
    35    29    25   1
    36    29    26   1
    37    27    29   1
    38     1    35   1
    39     2    36   1
    40     3    37   1
    41     4    38   1
    42     5    39   1
    43     6    40   1
    44     7    41   1
    45     8    42   1
    46     9    43   1
    47    10    44   1
    48    11    45   1
    49    19    46   1
    50    19    47   1
    51    20    48   1
    52    23    49   1
    53    23    50   1
    54    24    51   1
    55    24    52   1
    56    25    53   1
    57    25    54   1
    58    26    55   1
    59    26    56   1
    60    27    57   1
    61    27    58   1
    62    28    59   1
    63    29    60   1
@<TRIPOS>SUBSTRUCTURE
     1  N44      1

