@<TRIPOS>MOLECULE
3zsx_ligand_026
    60    63
SMALL
GAST_HUCK
****
This file was generated by PARSER (from files_GN.cpp)

@<TRIPOS>ATOM
      1 C1        -11.0762   41.0805   -1.6985 C.ar        1 N44      -0.0687
      2 C2         -8.3764   47.9942   -1.1514 C.ar        1 N44      -0.0630
      3 C3        -12.4347   41.2181   -1.3604 C.ar        1 N44      -0.0685
      4 C4        -10.3713   42.1759   -2.2284 C.ar        1 N44      -0.0685
      5 C5         -8.7017   49.3556   -1.2036 C.ar        1 N44      -0.0640
      6 C6         -9.3926   47.0380   -1.0115 C.ar        1 N44      -0.0483
      7 C7        -13.0854   42.4522   -1.5501 C.ar        1 N44      -0.0584
      8 C8        -11.0260   43.4058   -2.4262 C.ar        1 N44      -0.0584
      9 C9        -10.0443   49.7581   -1.0920 C.ar        1 N44      -0.0493
     10 C10       -13.3742   51.2453    3.5844 C.ar        1 N44      -0.0712
     11 C11       -13.8001   51.2154    4.9282 C.ar        1 N44      -0.0449
     12 C12       -10.7555   47.4247   -0.9205 C.ar        1 N44       0.0564
     13 C13       -12.1072   49.1764    3.9200 C.ar        1 N44       0.0376
     14 C14       -12.3892   43.5672   -2.0797 C.ar        1 N44      -0.0211
     15 C15       -11.0936   48.8157   -0.9304 C.ar        1 N44       0.0219
     16 C16       -12.5370   50.2272    3.0537 C.ar        1 N44      -0.0032
     17 C17       -13.3974   50.1510    5.7470 C.ar        1 N44       0.1200
     18 C18       -12.5748   49.1536    5.2527 C.ar        1 N44       0.1327
     19 C19       -14.7905   46.0557    0.7675 C.2         1 N44      -0.1125
     20 C20       -14.4603   47.3157    0.4504 C.2         1 N44      -0.0447
     21 C21       -11.6862   46.3995   -0.8938 C.2         1 N44       0.2021
     22 C22       -11.2552   48.1344    3.5085 C.2         1 N44       0.0515
     23 C23       -12.9382   48.7887    7.3639 C.3         1 N44       0.1864
     24 C24       -13.0741   44.8790   -2.2641 C.3         1 N44       0.0638
     25 C25       -12.4905   49.3500   -0.7471 C.3         1 N44       0.0086
     26 C26       -12.2039   50.2372    1.5904 C.3         1 N44       0.0003
     27 C27       -13.4774   48.0629    1.2154 C.3         1 N44      -0.0011
     28 N28       -12.2518   46.0315   -2.0390 N.am        1 N44      -0.2760
     29 N29       -13.0518   49.3945    0.6597 N.4         1 N44       0.2715
     30 O30       -11.7566   46.8977    3.3000 O.co2       1 N44      -0.5668
     31 O31       -11.7372   45.6827    0.1006 O.2         1 N44      -0.3884
     32 O32        -9.9195   48.3194    3.4160 O.co2       1 N44      -0.5668
     33 O33       -13.7321   49.9440    7.0340 O.3         1 N44      -0.2947
     34 O34       -12.3158   48.2230    6.1967 O.3         1 N44      -0.2890
     35 H1        -10.6012   40.1852   -1.5604 H           1 N44       0.0559
     36 H2         -7.3998   47.6952   -1.2388 H           1 N44       0.0572
     37 H3        -12.9473   40.4210   -0.9734 H           1 N44       0.0599
     38 H4         -9.3803   42.0768   -2.4611 H           1 N44       0.0599
     39 H5         -7.9630   50.0525   -1.3124 H           1 N44       0.0635
     40 H6         -9.1260   46.0454   -1.0085 H           1 N44       0.0651
     41 H7        -14.0733   42.5305   -1.2973 H           1 N44       0.0557
     42 H8        -10.4947   44.1935   -2.8026 H           1 N44       0.0557
     43 H9        -10.2439   50.7614   -1.1077 H           1 N44       0.0570
     44 H10       -13.6992   52.0131    2.9888 H           1 N44       0.0445
     45 H11       -14.4032   51.9528    5.3016 H           1 N44       0.0514
     46 H12       -15.4797   45.5708    0.2456 H           1 N44       0.0292
     47 H13       -14.3661   45.5893    1.5330 H           1 N44       0.0292
     48 H14       -14.9418   47.7586   -0.3019 H           1 N44       0.0725
     49 H15       -13.5709   48.0328    7.8368 H           1 N44       0.0973
     50 H16       -12.1599   49.0788    8.0767 H           1 N44       0.0973
     51 H17       -13.9510   44.9543   -1.6157 H           1 N44       0.0683
     52 H18       -13.4240   44.9263   -3.2973 H           1 N44       0.0683
     53 H19       -13.1552   48.7916   -1.4054 H           1 N44       0.0995
     54 H20       -12.5399   50.3729   -1.1325 H           1 N44       0.0995
     55 H21       -11.1546   49.9570    1.4903 H           1 N44       0.0966
     56 H22       -12.2459   51.2713    1.2289 H           1 N44       0.0966
     57 H23       -12.5871   47.4473    1.3953 H           1 N44       0.0998
     58 H24       -13.9689   48.2305    2.1746 H           1 N44       0.0998
     59 H25       -12.0700   46.5910   -2.8129 H           1 N44       0.1869
     60 H26       -13.9313   49.9140    0.5721 H           1 N44       0.2082
@<TRIPOS>BOND
     1     3     1  ar
     2     4     1  ar
     3     5     2  ar
     4     6     2  ar
     5     7     3  ar
     6     8     4  ar
     7     9     5  ar
     8    12     6  ar
     9    14     7  ar
    10    14     8  ar
    11    15     9  ar
    12    10    11  ar
    13    16    10  ar
    14    11    17  ar
    15    15    12  ar
    16    12    21   1
    17    16    13  ar
    18    13    18  ar
    19    13    22   1
    20    24    14   1
    21    25    15   1
    22    26    16   1
    23    18    17  ar
    24    17    33   1
    25    18    34   1
    26    20    19   2
    27    27    20   1
    28    21    28  am
    29    21    31   2
    30    22    30  ar
    31    22    32  ar
    32    23    33   1
    33    34    23   1
    34    28    24   1
    35    29    25   1
    36    29    26   1
    37    27    29   1
    38     1    35   1
    39     2    36   1
    40     3    37   1
    41     4    38   1
    42     5    39   1
    43     6    40   1
    44     7    41   1
    45     8    42   1
    46     9    43   1
    47    10    44   1
    48    11    45   1
    49    19    46   1
    50    19    47   1
    51    20    48   1
    52    23    49   1
    53    23    50   1
    54    24    51   1
    55    24    52   1
    56    25    53   1
    57    25    54   1
    58    26    55   1
    59    26    56   1
    60    27    57   1
    61    27    58   1
    62    28    59   1
    63    29    60   1
@<TRIPOS>SUBSTRUCTURE
     1  N44      1

