@<TRIPOS>MOLECULE
3zsx_ligand_067
    60    63
SMALL
GAST_HUCK
****
This file was generated by PARSER (from files_GN.cpp)

@<TRIPOS>ATOM
      1 C1        -15.3025   52.8922   -0.3625 C.ar        1 N44      -0.0687
      2 C2        -20.8515   46.4440   -1.2158 C.ar        1 N44      -0.0630
      3 C3        -16.6115   52.5931    0.0544 C.ar        1 N44      -0.0685
      4 C4        -14.8997   52.5906   -1.6739 C.ar        1 N44      -0.0685
      5 C5        -20.0643   45.3116   -0.9738 C.ar        1 N44      -0.0640
      6 C6        -20.3098   47.5280   -1.9174 C.ar        1 N44      -0.0483
      7 C7        -17.5171   51.9965   -0.8439 C.ar        1 N44      -0.0584
      8 C8        -15.8001   51.9785   -2.5681 C.ar        1 N44      -0.0584
      9 C9        -18.7253   45.2831   -1.4037 C.ar        1 N44      -0.0493
     10 C10       -12.9558   45.3983    0.3584 C.ar        1 N44      -0.0712
     11 C11       -12.2346   45.5822    1.5507 C.ar        1 N44      -0.0449
     12 C12       -18.9621   47.5088   -2.3696 C.ar        1 N44       0.0564
     13 C13       -13.4166   47.7937    0.2297 C.ar        1 N44       0.0376
     14 C14       -17.1225   51.6781   -2.1665 C.ar        1 N44      -0.0211
     15 C15       -18.1247   46.3797   -2.0751 C.ar        1 N44       0.0219
     16 C16       -13.5693   46.4855   -0.3233 C.ar        1 N44      -0.0032
     17 C17       -12.0955   46.8774    2.0650 C.ar        1 N44       0.1200
     18 C18       -12.6699   47.9584    1.4210 C.ar        1 N44       0.1327
     19 C19       -15.4039   43.7641   -4.0508 C.2         1 N44      -0.1125
     20 C20       -15.9540   43.4555   -2.8695 C.2         1 N44      -0.0447
     21 C21       -18.5292   48.6109   -3.0984 C.2         1 N44       0.2021
     22 C22       -13.9369   48.9502   -0.3729 C.2         1 N44       0.0515
     23 C23       -11.7089   48.6395    3.2489 C.3         1 N44       0.1864
     24 C24       -18.0963   51.0508   -3.0997 C.3         1 N44       0.0638
     25 C25       -16.6570   46.3453   -2.4393 C.3         1 N44       0.0086
     26 C26       -14.2248   46.2230   -1.6475 C.3         1 N44       0.0003
     27 C27       -15.6138   44.1205   -1.6136 C.3         1 N44      -0.0011
     28 N28       -18.5696   49.8160   -2.5464 N.am        1 N44      -0.2760
     29 N29       -15.6318   45.6441   -1.5500 N.4         1 N44       0.2715
     30 O30       -13.0947   49.8391   -0.9456 O.co2       1 N44      -0.5668
     31 O31       -18.0886   48.4379   -4.2292 O.2         1 N44      -0.3884
     32 O32       -15.1892   49.3538   -0.0644 O.co2       1 N44      -0.5668
     33 O33       -11.4020   47.2370    3.1597 O.3         1 N44      -0.2947
     34 O34       -12.3804   49.1111    2.0655 O.3         1 N44      -0.2890
     35 H1        -14.6487   53.3288    0.2867 H           1 N44       0.0559
     36 H2        -21.8279   46.4659   -0.9052 H           1 N44       0.0572
     37 H3        -16.9081   52.8100    1.0079 H           1 N44       0.0599
     38 H4        -13.9481   52.8093   -1.9774 H           1 N44       0.0599
     39 H5        -20.4615   44.5052   -0.4797 H           1 N44       0.0635
     40 H6        -20.9209   48.3285   -2.1127 H           1 N44       0.0651
     41 H7        -18.4676   51.7933   -0.5246 H           1 N44       0.0557
     42 H8        -15.4815   51.7592   -3.5170 H           1 N44       0.0557
     43 H9        -18.1977   44.4388   -1.1973 H           1 N44       0.0570
     44 H10       -12.9856   44.4549   -0.0261 H           1 N44       0.0445
     45 H11       -11.7886   44.7890    2.0203 H           1 N44       0.0514
     46 H12       -15.6518   43.2566   -4.8676 H           1 N44       0.0292
     47 H13       -14.7446   44.4951   -4.1376 H           1 N44       0.0292
     48 H14       -16.5728   42.6781   -2.8351 H           1 N44       0.0725
     49 H15       -10.7847   49.2030    3.3944 H           1 N44       0.0973
     50 H16       -12.3539   48.8090    4.1154 H           1 N44       0.0973
     51 H17       -17.6584   50.9089   -4.0913 H           1 N44       0.0683
     52 H18       -18.9519   51.7189   -3.2185 H           1 N44       0.0683
     53 H19       -16.3570   47.3920   -2.4806 H           1 N44       0.0995
     54 H20       -16.5813   45.9897   -3.4701 H           1 N44       0.0995
     55 H21       -13.5670   45.5777   -2.2378 H           1 N44       0.0966
     56 H22       -14.2077   47.1479   -2.2217 H           1 N44       0.0966
     57 H23       -14.6367   43.7177   -1.3527 H           1 N44       0.0998
     58 H24       -16.2723   43.7500   -0.8281 H           1 N44       0.0998
     59 H25       -18.9359   49.8720   -1.6453 H           1 N44       0.1869
     60 H26       -15.9484   45.8904   -0.6045 H           1 N44       0.2082
@<TRIPOS>BOND
     1     3     1  ar
     2     4     1  ar
     3     5     2  ar
     4     6     2  ar
     5     7     3  ar
     6     8     4  ar
     7     9     5  ar
     8    12     6  ar
     9    14     7  ar
    10    14     8  ar
    11    15     9  ar
    12    10    11  ar
    13    16    10  ar
    14    11    17  ar
    15    15    12  ar
    16    12    21   1
    17    16    13  ar
    18    13    18  ar
    19    13    22   1
    20    24    14   1
    21    25    15   1
    22    26    16   1
    23    18    17  ar
    24    17    33   1
    25    18    34   1
    26    20    19   2
    27    27    20   1
    28    21    28  am
    29    21    31   2
    30    22    30  ar
    31    22    32  ar
    32    23    33   1
    33    34    23   1
    34    28    24   1
    35    29    25   1
    36    29    26   1
    37    27    29   1
    38     1    35   1
    39     2    36   1
    40     3    37   1
    41     4    38   1
    42     5    39   1
    43     6    40   1
    44     7    41   1
    45     8    42   1
    46     9    43   1
    47    10    44   1
    48    11    45   1
    49    19    46   1
    50    19    47   1
    51    20    48   1
    52    23    49   1
    53    23    50   1
    54    24    51   1
    55    24    52   1
    56    25    53   1
    57    25    54   1
    58    26    55   1
    59    26    56   1
    60    27    57   1
    61    27    58   1
    62    28    59   1
    63    29    60   1
@<TRIPOS>SUBSTRUCTURE
     1  N44      1

