@<TRIPOS>MOLECULE
3zsx_ligand_041
    60    63
SMALL
GAST_HUCK
****
This file was generated by PARSER (from files_GN.cpp)

@<TRIPOS>ATOM
      1 C1        -13.0502   53.2822   -1.3236 C.ar        1 N44      -0.0687
      2 C2        -17.5990   48.4729   -6.5953 C.ar        1 N44      -0.0630
      3 C3        -14.2841   53.4985   -1.9613 C.ar        1 N44      -0.0685
      4 C4        -12.7753   52.0381   -0.7293 C.ar        1 N44      -0.0685
      5 C5        -16.8105   47.4429   -7.1307 C.ar        1 N44      -0.0640
      6 C6        -17.5392   48.7657   -5.2243 C.ar        1 N44      -0.0483
      7 C7        -15.2464   52.4705   -2.0004 C.ar        1 N44      -0.0584
      8 C8        -13.7387   51.0147   -0.7655 C.ar        1 N44      -0.0584
      9 C9        -15.9712   46.6945   -6.2855 C.ar        1 N44      -0.0493
     10 C10       -12.5933   45.1687   -2.3268 C.ar        1 N44      -0.0712
     11 C11       -11.1979   45.1339   -2.1547 C.ar        1 N44      -0.0449
     12 C12       -16.6832   48.0267   -4.3708 C.ar        1 N44       0.0564
     13 C13       -12.8994   45.9149   -0.0174 C.ar        1 N44       0.0376
     14 C14       -14.9863   51.2169   -1.3971 C.ar        1 N44      -0.0211
     15 C15       -15.8952   46.9521   -4.8925 C.ar        1 N44       0.0219
     16 C16       -13.4729   45.5920   -1.2923 C.ar        1 N44      -0.0032
     17 C17       -10.6550   45.5346   -0.9284 C.ar        1 N44       0.1200
     18 C18       -11.4839   45.9098    0.1185 C.ar        1 N44       0.1327
     19 C19       -15.8550   43.3144   -5.3584 C.2         1 N44      -0.1125
     20 C20       -16.5668   43.6479   -4.2716 C.2         1 N44      -0.0447
     21 C21       -16.6377   48.4167   -3.0509 C.2         1 N44       0.2021
     22 C22       -13.6695   46.2090    1.1423 C.2         1 N44       0.0515
     23 C23        -9.4152   45.8679    0.8097 C.3         1 N44       0.1864
     24 C24       -15.9987   50.1343   -1.4374 C.3         1 N44       0.0638
     25 C25       -14.9483   46.1443   -4.0574 C.3         1 N44       0.0086
     26 C26       -14.9495   45.7704   -1.5441 C.3         1 N44       0.0003
     27 C27       -15.9444   44.0146   -3.0129 C.3         1 N44      -0.0011
     28 N28       -16.1004   49.5894   -2.7527 N.am        1 N44      -0.2760
     29 N29       -15.5945   45.4724   -2.8760 N.4         1 N44       0.2715
     30 O30       -13.3673   47.2503    1.9521 O.co2       1 N44      -0.5668
     31 O31       -17.2087   47.7136   -2.2228 O.2         1 N44      -0.3884
     32 O32       -14.6238   45.3542    1.5762 O.co2       1 N44      -0.5668
     33 O33        -9.3483   45.5880   -0.5980 O.3         1 N44      -0.2947
     34 O34       -10.7480   46.2124    1.2165 O.3         1 N44      -0.2890
     35 H1        -12.3482   54.0287   -1.2978 H           1 N44       0.0559
     36 H2        -18.2163   49.0155   -7.2055 H           1 N44       0.0572
     37 H3        -14.4790   54.4004   -2.4023 H           1 N44       0.0599
     38 H4        -11.8730   51.8775   -0.2756 H           1 N44       0.0599
     39 H5        -16.8571   47.2371   -8.1229 H           1 N44       0.0635
     40 H6        -18.1132   49.5335   -4.8630 H           1 N44       0.0651
     41 H7        -16.1385   52.6461   -2.4709 H           1 N44       0.0557
     42 H8        -13.5168   50.1128   -0.3327 H           1 N44       0.0557
     43 H9        -15.4193   45.9461   -6.6978 H           1 N44       0.0570
     44 H10       -12.9500   44.8903   -3.2348 H           1 N44       0.0445
     45 H11       -10.5933   44.8237   -2.9185 H           1 N44       0.0514
     46 H12       -16.3149   43.0034   -6.1766 H           1 N44       0.0292
     47 H13       -14.8642   43.3832   -5.3607 H           1 N44       0.0292
     48 H14       -17.5613   43.6362   -4.3242 H           1 N44       0.0725
     49 H15        -8.7359   46.6893    1.0470 H           1 N44       0.0973
     50 H16        -9.0884   44.9808    1.3586 H           1 N44       0.0973
     51 H17       -16.9703   50.5200   -1.1178 H           1 N44       0.0683
     52 H18       -15.7202   49.3318   -0.7515 H           1 N44       0.0683
     53 H19       -14.1570   46.8187   -3.7287 H           1 N44       0.0995
     54 H20       -14.4396   45.3941   -4.6649 H           1 N44       0.0995
     55 H21       -15.1626   46.8254   -1.3455 H           1 N44       0.0966
     56 H22       -15.4778   45.1994   -0.7773 H           1 N44       0.0966
     57 H23       -15.0755   43.3787   -2.8094 H           1 N44       0.0998
     58 H24       -16.6805   43.7634   -2.2412 H           1 N44       0.0998
     59 H25       -15.7260   50.1041   -3.4862 H           1 N44       0.1869
     60 H26       -16.5033   45.9265   -2.7976 H           1 N44       0.2082
@<TRIPOS>BOND
     1     3     1  ar
     2     4     1  ar
     3     5     2  ar
     4     6     2  ar
     5     7     3  ar
     6     8     4  ar
     7     9     5  ar
     8    12     6  ar
     9    14     7  ar
    10    14     8  ar
    11    15     9  ar
    12    10    11  ar
    13    16    10  ar
    14    11    17  ar
    15    15    12  ar
    16    12    21   1
    17    16    13  ar
    18    13    18  ar
    19    13    22   1
    20    24    14   1
    21    25    15   1
    22    26    16   1
    23    18    17  ar
    24    17    33   1
    25    18    34   1
    26    20    19   2
    27    27    20   1
    28    21    28  am
    29    21    31   2
    30    22    30  ar
    31    22    32  ar
    32    23    33   1
    33    34    23   1
    34    28    24   1
    35    29    25   1
    36    29    26   1
    37    27    29   1
    38     1    35   1
    39     2    36   1
    40     3    37   1
    41     4    38   1
    42     5    39   1
    43     6    40   1
    44     7    41   1
    45     8    42   1
    46     9    43   1
    47    10    44   1
    48    11    45   1
    49    19    46   1
    50    19    47   1
    51    20    48   1
    52    23    49   1
    53    23    50   1
    54    24    51   1
    55    24    52   1
    56    25    53   1
    57    25    54   1
    58    26    55   1
    59    26    56   1
    60    27    57   1
    61    27    58   1
    62    28    59   1
    63    29    60   1
@<TRIPOS>SUBSTRUCTURE
     1  N44      1

