@<TRIPOS>MOLECULE
3zsx_ligand_029
    60    63
SMALL
GAST_HUCK
****
This file was generated by PARSER (from files_GN.cpp)

@<TRIPOS>ATOM
      1 C1        -23.8805   38.1799   -7.0900 C.ar        1 N44      -0.0687
      2 C2        -16.0031   41.5666   -6.5234 C.ar        1 N44      -0.0630
      3 C3        -22.8641   37.2216   -6.9243 C.ar        1 N44      -0.0685
      4 C4        -23.7116   39.2299   -8.0093 C.ar        1 N44      -0.0685
      5 C5        -16.5060   42.7833   -6.0616 C.ar        1 N44      -0.0640
      6 C6        -16.8810   40.6055   -7.0427 C.ar        1 N44      -0.0483
      7 C7        -21.6812   37.3113   -7.6798 C.ar        1 N44      -0.0584
      8 C8        -22.5270   39.3201   -8.7639 C.ar        1 N44      -0.0584
      9 C9        -17.8742   43.0676   -6.1912 C.ar        1 N44      -0.0493
     10 C10       -19.5668   46.0588   -5.4521 C.ar        1 N44      -0.0712
     11 C11       -18.9576   46.3518   -4.2165 C.ar        1 N44      -0.0449
     12 C12       -18.2702   40.8742   -7.1669 C.ar        1 N44       0.0564
     13 C13       -21.4804   45.0452   -4.2957 C.ar        1 N44       0.0376
     14 C14       -21.4936   38.3727   -8.5964 C.ar        1 N44      -0.0211
     15 C15       -18.7902   42.1551   -6.7887 C.ar        1 N44       0.0219
     16 C16       -20.8006   45.3543   -5.5175 C.ar        1 N44      -0.0032
     17 C17       -19.6082   45.9738   -3.0325 C.ar        1 N44       0.1200
     18 C18       -20.8431   45.3484   -3.0713 C.ar        1 N44       0.1327
     19 C19       -23.0369   43.0259   -9.0472 C.2         1 N44      -0.1125
     20 C20       -22.0764   43.8274   -9.5235 C.2         1 N44      -0.0447
     21 C21       -19.0667   39.8135   -7.5310 C.2         1 N44       0.2021
     22 C22       -22.7380   44.4112   -4.2510 C.2         1 N44       0.0515
     23 C23       -20.1962   45.5277   -0.9962 C.3         1 N44       0.1864
     24 C24       -20.1982   38.5621   -9.3024 C.3         1 N44       0.0638
     25 C25       -20.2275   42.5810   -6.9133 C.3         1 N44       0.0086
     26 C26       -21.2864   44.9243   -6.8685 C.3         1 N44       0.0003
     27 C27       -20.6877   43.8383   -9.0639 C.3         1 N44      -0.0011
     28 N28       -19.5005   39.6994   -8.7862 N.am        1 N44      -0.2760
     29 N29       -20.4031   43.9300   -7.5819 N.4         1 N44       0.2715
     30 O30       -23.8525   45.0757   -4.6291 O.co2       1 N44      -0.5668
     31 O31       -19.1859   38.8951   -6.7243 O.2         1 N44      -0.3884
     32 O32       -22.8844   43.2122   -3.6339 O.co2       1 N44      -0.5668
     33 O33       -19.1723   46.1739   -1.7737 O.3         1 N44      -0.2947
     34 O34       -21.3065   45.1278   -1.8211 O.3         1 N44      -0.2890
     35 H1        -24.7390   38.1150   -6.5395 H           1 N44       0.0559
     36 H2        -15.0117   41.3548   -6.4464 H           1 N44       0.0572
     37 H3        -22.9772   36.4706   -6.2406 H           1 N44       0.0599
     38 H4        -24.4446   39.9334   -8.1217 H           1 N44       0.0599
     39 H5        -15.8705   43.4731   -5.6425 H           1 N44       0.0635
     40 H6        -16.4927   39.6978   -7.3093 H           1 N44       0.0651
     41 H7        -20.9412   36.6210   -7.5283 H           1 N44       0.0557
     42 H8        -22.4119   40.0917   -9.4247 H           1 N44       0.0557
     43 H9        -18.2071   43.9654   -5.8418 H           1 N44       0.0570
     44 H10       -19.0936   46.3509   -6.3102 H           1 N44       0.0445
     45 H11       -18.0480   46.8177   -4.1836 H           1 N44       0.0514
     46 H12       -23.9655   43.0824   -9.4044 H           1 N44       0.0292
     47 H13       -22.8612   42.3957   -8.3029 H           1 N44       0.0292
     48 H14       -22.3387   44.4700  -10.2399 H           1 N44       0.0725
     49 H15       -20.5465   46.2130   -0.2211 H           1 N44       0.0973
     50 H16       -19.7768   44.6469   -0.5015 H           1 N44       0.0973
     51 H17       -20.3808   38.7149  -10.3695 H           1 N44       0.0683
     52 H18       -19.5628   37.6758   -9.2083 H           1 N44       0.0683
     53 H19       -20.6319   42.6052   -5.9045 H           1 N44       0.0995
     54 H20       -20.8063   41.8193   -7.4319 H           1 N44       0.0995
     55 H21       -21.3753   45.8344   -7.4713 H           1 N44       0.0966
     56 H22       -22.2902   44.5037   -6.8050 H           1 N44       0.0966
     57 H23       -20.2092   44.7083   -9.5161 H           1 N44       0.0998
     58 H24       -20.1879   42.9698   -9.4962 H           1 N44       0.0998
     59 H25       -19.2956   40.4263   -9.4011 H           1 N44       0.1869
     60 H26       -19.4766   44.3577   -7.5396 H           1 N44       0.2082
@<TRIPOS>BOND
     1     3     1  ar
     2     4     1  ar
     3     5     2  ar
     4     6     2  ar
     5     7     3  ar
     6     8     4  ar
     7     9     5  ar
     8    12     6  ar
     9    14     7  ar
    10    14     8  ar
    11    15     9  ar
    12    10    11  ar
    13    16    10  ar
    14    11    17  ar
    15    15    12  ar
    16    12    21   1
    17    16    13  ar
    18    13    18  ar
    19    13    22   1
    20    24    14   1
    21    25    15   1
    22    26    16   1
    23    18    17  ar
    24    17    33   1
    25    18    34   1
    26    20    19   2
    27    27    20   1
    28    21    28  am
    29    21    31   2
    30    22    30  ar
    31    22    32  ar
    32    23    33   1
    33    34    23   1
    34    28    24   1
    35    29    25   1
    36    29    26   1
    37    27    29   1
    38     1    35   1
    39     2    36   1
    40     3    37   1
    41     4    38   1
    42     5    39   1
    43     6    40   1
    44     7    41   1
    45     8    42   1
    46     9    43   1
    47    10    44   1
    48    11    45   1
    49    19    46   1
    50    19    47   1
    51    20    48   1
    52    23    49   1
    53    23    50   1
    54    24    51   1
    55    24    52   1
    56    25    53   1
    57    25    54   1
    58    26    55   1
    59    26    56   1
    60    27    57   1
    61    27    58   1
    62    28    59   1
    63    29    60   1
@<TRIPOS>SUBSTRUCTURE
     1  N44      1

