@<TRIPOS>MOLECULE
3zsx_ligand_084
    60    63
SMALL
GAST_HUCK
****
This file was generated by PARSER (from files_GN.cpp)

@<TRIPOS>ATOM
      1 C1        -28.2080   45.8976   -8.9495 C.ar        1 N44      -0.0687
      2 C2        -24.2972   39.9771  -11.9763 C.ar        1 N44      -0.0630
      3 C3        -26.8841   45.9688   -9.4157 C.ar        1 N44      -0.0685
      4 C4        -28.5380   45.0095   -7.9091 C.ar        1 N44      -0.0685
      5 C5        -23.1659   39.2000  -11.6996 C.ar        1 N44      -0.0640
      6 C6        -24.8783   40.7450  -10.9588 C.ar        1 N44      -0.0483
      7 C7        -25.8915   45.1574   -8.8371 C.ar        1 N44      -0.0584
      8 C8        -27.5418   44.1996   -7.3294 C.ar        1 N44      -0.0584
      9 C9        -22.5860   39.2414  -10.4205 C.ar        1 N44      -0.0493
     10 C10       -21.8479   43.1792  -10.1984 C.ar        1 N44      -0.0712
     11 C11       -22.4008   44.4598  -10.3530 C.ar        1 N44      -0.0449
     12 C12       -24.3145   40.7958   -9.6564 C.ar        1 N44       0.0564
     13 C13       -20.9138   43.7992   -7.9999 C.ar        1 N44       0.0376
     14 C14       -26.2026   44.2677   -7.7830 C.ar        1 N44      -0.0211
     15 C15       -23.1012   40.0753   -9.3967 C.ar        1 N44       0.0219
     16 C16       -21.0962   42.8248   -9.0407 C.ar        1 N44      -0.0032
     17 C17       -22.2036   45.4057   -9.3433 C.ar        1 N44       0.1200
     18 C18       -21.5024   45.0803   -8.1917 C.ar        1 N44       0.1327
     19 C19       -17.7680   40.4247   -7.3119 C.2         1 N44      -0.1125
     20 C20       -18.8564   39.7502   -6.9142 C.2         1 N44      -0.0447
     21 C21       -25.0300   41.5179   -8.7007 C.2         1 N44       0.2021
     22 C22       -20.1592   43.5704   -6.8065 C.2         1 N44       0.0515
     23 C23       -22.0025   47.2066   -8.1747 C.3         1 N44       0.1864
     24 C24       -25.1294   43.4434   -7.1617 C.3         1 N44       0.0638
     25 C25       -22.3863   40.0547   -8.0773 C.3         1 N44       0.0086
     26 C26       -20.4626   41.4651   -9.0438 C.3         1 N44       0.0003
     27 C27       -19.9392   39.3558   -7.8052 C.3         1 N44      -0.0011
     28 N28       -24.4857   42.5595   -8.0881 N.am        1 N44      -0.2760
     29 N29       -20.9326   40.4816   -7.9963 N.4         1 N44       0.2715
     30 O30       -19.5567   42.4021   -6.5007 O.co2       1 N44      -0.5668
     31 O31       -26.2172   41.2582   -8.5353 O.2         1 N44      -0.3884
     32 O32       -19.8739   44.5649   -5.9352 O.co2       1 N44      -0.5668
     33 O33       -22.6544   46.6757   -9.3385 O.3         1 N44      -0.2947
     34 O34       -21.4823   46.1465   -7.3551 O.3         1 N44      -0.2890
     35 H1        -28.9296   46.4913   -9.3669 H           1 N44       0.0559
     36 H2        -24.7189   39.9557  -12.9095 H           1 N44       0.0572
     37 H3        -26.6410   46.6103  -10.1748 H           1 N44       0.0599
     38 H4        -29.5020   44.9549   -7.5722 H           1 N44       0.0599
     39 H5        -22.7681   38.6048  -12.4278 H           1 N44       0.0635
     40 H6        -25.7307   41.2700  -11.1857 H           1 N44       0.0651
     41 H7        -24.9386   45.2193   -9.1938 H           1 N44       0.0557
     42 H8        -27.8016   43.5647   -6.5699 H           1 N44       0.0557
     43 H9        -21.7721   38.6500  -10.2493 H           1 N44       0.0570
     44 H10       -22.0054   42.5066  -10.9566 H           1 N44       0.0445
     45 H11       -22.9369   44.7057  -11.1898 H           1 N44       0.0514
     46 H12       -17.0648   40.6690   -6.6581 H           1 N44       0.0292
     47 H13       -17.6617   40.7024   -8.2571 H           1 N44       0.0292
     48 H14       -18.9478   39.5494   -5.9431 H           1 N44       0.0725
     49 H15       -22.7145   47.8032   -7.6026 H           1 N44       0.0973
     50 H16       -21.1802   47.8582   -8.4835 H           1 N44       0.0973
     51 H17       -25.5041   42.8576   -6.3165 H           1 N44       0.0683
     52 H18       -24.3684   44.1225   -6.7695 H           1 N44       0.0683
     53 H19       -22.5098   39.0438   -7.6753 H           1 N44       0.0995
     54 H20       -22.9002   40.6839   -7.3550 H           1 N44       0.0995
     55 H21       -19.3888   41.6437   -8.9447 H           1 N44       0.0966
     56 H22       -20.5662   40.9804  -10.0214 H           1 N44       0.0966
     57 H23       -20.3987   38.4759   -7.3451 H           1 N44       0.0998
     58 H24       -19.5415   39.0094   -8.7667 H           1 N44       0.0998
     59 H25       -23.5545   42.7434   -8.2783 H           1 N44       0.1869
     60 H26       -20.8962   40.9941   -7.1151 H           1 N44       0.2082
@<TRIPOS>BOND
     1     3     1  ar
     2     4     1  ar
     3     5     2  ar
     4     6     2  ar
     5     7     3  ar
     6     8     4  ar
     7     9     5  ar
     8    12     6  ar
     9    14     7  ar
    10    14     8  ar
    11    15     9  ar
    12    10    11  ar
    13    16    10  ar
    14    11    17  ar
    15    15    12  ar
    16    12    21   1
    17    16    13  ar
    18    13    18  ar
    19    13    22   1
    20    24    14   1
    21    25    15   1
    22    26    16   1
    23    18    17  ar
    24    17    33   1
    25    18    34   1
    26    20    19   2
    27    27    20   1
    28    21    28  am
    29    21    31   2
    30    22    30  ar
    31    22    32  ar
    32    23    33   1
    33    34    23   1
    34    28    24   1
    35    29    25   1
    36    29    26   1
    37    27    29   1
    38     1    35   1
    39     2    36   1
    40     3    37   1
    41     4    38   1
    42     5    39   1
    43     6    40   1
    44     7    41   1
    45     8    42   1
    46     9    43   1
    47    10    44   1
    48    11    45   1
    49    19    46   1
    50    19    47   1
    51    20    48   1
    52    23    49   1
    53    23    50   1
    54    24    51   1
    55    24    52   1
    56    25    53   1
    57    25    54   1
    58    26    55   1
    59    26    56   1
    60    27    57   1
    61    27    58   1
    62    28    59   1
    63    29    60   1
@<TRIPOS>SUBSTRUCTURE
     1  N44      1

