@<TRIPOS>MOLECULE
3zsx_ligand_012
    60    63
SMALL
GAST_HUCK
****
This file was generated by PARSER (from files_GN.cpp)

@<TRIPOS>ATOM
      1 C1        -11.7274   43.8632   -2.6852 C.ar        1 N44      -0.0687
      2 C2        -17.4081   49.5713   -3.6266 C.ar        1 N44      -0.0630
      3 C3        -12.3997   45.0525   -3.0172 C.ar        1 N44      -0.0685
      4 C4        -12.4296   42.8160   -2.0639 C.ar        1 N44      -0.0685
      5 C5        -18.5632   49.8744   -2.8874 C.ar        1 N44      -0.0640
      6 C6        -16.9897   48.2341   -3.7520 C.ar        1 N44      -0.0483
      7 C7        -13.7703   45.1874   -2.7479 C.ar        1 N44      -0.0584
      8 C8        -13.8023   42.9530   -1.7915 C.ar        1 N44      -0.0584
      9 C9        -19.3108   48.8403   -2.3016 C.ar        1 N44      -0.0493
     10 C10       -22.5988   47.4920    0.2928 C.ar        1 N44      -0.0712
     11 C11       -22.5321   48.1114    1.5592 C.ar        1 N44      -0.0449
     12 C12       -17.7172   47.1870   -3.1308 C.ar        1 N44       0.0564
     13 C13       -21.6498   45.4266    1.2154 C.ar        1 N44       0.0376
     14 C14       -14.5035   44.1356   -2.1409 C.ar        1 N44      -0.0211
     15 C15       -18.9212   47.4828   -2.4222 C.ar        1 N44       0.0219
     16 C16       -22.1336   46.1608    0.0904 C.ar        1 N44      -0.0032
     17 C17       -21.9604   47.4018    2.6244 C.ar        1 N44       0.1200
     18 C18       -21.5392   46.0907    2.4625 C.ar        1 N44       0.1327
     19 C19       -19.8965   46.5314   -5.5884 C.2         1 N44      -0.1125
     20 C20       -20.7341   46.8781   -4.5920 C.2         1 N44      -0.0447
     21 C21       -17.1426   45.9287   -3.1422 C.2         1 N44       0.2021
     22 C22       -21.2875   44.0656    1.1316 C.2         1 N44       0.0515
     23 C23       -20.9503   46.8024    4.4189 C.3         1 N44       0.1864
     24 C24       -15.9644   44.2011   -1.8388 C.3         1 N44       0.0638
     25 C25       -19.7838   46.4536   -1.7596 C.3         1 N44       0.0086
     26 C26       -22.1356   45.6545   -1.3267 C.3         1 N44       0.0003
     27 C27       -21.3399   45.9320   -3.6800 C.3         1 N44      -0.0011
     28 N28       -16.6255   45.4558   -2.0153 N.am        1 N44      -0.2760
     29 N29       -21.2126   46.4056   -2.2537 N.4         1 N44       0.2715
     30 O30       -20.3659   43.5494    1.9732 O.co2       1 N44      -0.5668
     31 O31       -17.0359   45.3212   -4.2069 O.2         1 N44      -0.3884
     32 O32       -22.0840   43.2018    0.4615 O.co2       1 N44      -0.5668
     33 O33       -21.7883   47.8422    3.8866 O.3         1 N44      -0.2947
     34 O34       -21.0577   45.6024    3.6295 O.3         1 N44      -0.2890
     35 H1        -10.7307   43.7612   -2.8929 H           1 N44       0.0559
     36 H2        -16.8519   50.3240   -4.0414 H           1 N44       0.0572
     37 H3        -11.8890   45.8207   -3.4535 H           1 N44       0.0599
     38 H4        -11.9349   41.9537   -1.8010 H           1 N44       0.0599
     39 H5        -18.8447   50.8531   -2.7701 H           1 N44       0.0635
     40 H6        -16.1212   48.0450   -4.2661 H           1 N44       0.0651
     41 H7        -14.2220   46.0694   -3.0002 H           1 N44       0.0557
     42 H8        -14.2905   42.1841   -1.3229 H           1 N44       0.0557
     43 H9        -20.1448   49.0884   -1.7608 H           1 N44       0.0570
     44 H10       -22.9685   48.0401   -0.4942 H           1 N44       0.0445
     45 H11       -22.8558   49.0741    1.6856 H           1 N44       0.0514
     46 H12       -19.5513   47.2210   -6.2099 H           1 N44       0.0292
     47 H13       -19.6205   45.5908   -5.7165 H           1 N44       0.0292
     48 H14       -21.0065   47.8260   -4.5258 H           1 N44       0.0725
     49 H15       -21.2357   46.5966    5.4524 H           1 N44       0.0973
     50 H16       -19.9062   47.1355    4.4168 H           1 N44       0.0973
     51 H17       -16.0869   43.9542   -0.7847 H           1 N44       0.0683
     52 H18       -16.4900   43.4331   -2.4202 H           1 N44       0.0683
     53 H19       -19.7592   46.7021   -0.6982 H           1 N44       0.0995
     54 H20       -19.3641   45.4498   -1.8464 H           1 N44       0.0995
     55 H21       -23.1822   45.7639   -1.6732 H           1 N44       0.0966
     56 H22       -21.8770   44.5887   -1.3863 H           1 N44       0.0966
     57 H23       -20.9348   44.9216   -3.7898 H           1 N44       0.0998
     58 H24       -22.3877   45.8567   -3.9992 H           1 N44       0.0998
     59 H25       -16.7290   46.0075   -1.2192 H           1 N44       0.1869
     60 H26       -21.5533   47.3790   -2.2432 H           1 N44       0.2082
@<TRIPOS>BOND
     1     3     1  ar
     2     4     1  ar
     3     5     2  ar
     4     6     2  ar
     5     7     3  ar
     6     8     4  ar
     7     9     5  ar
     8    12     6  ar
     9    14     7  ar
    10    14     8  ar
    11    15     9  ar
    12    10    11  ar
    13    16    10  ar
    14    11    17  ar
    15    15    12  ar
    16    12    21   1
    17    16    13  ar
    18    13    18  ar
    19    13    22   1
    20    24    14   1
    21    25    15   1
    22    26    16   1
    23    18    17  ar
    24    17    33   1
    25    18    34   1
    26    20    19   2
    27    27    20   1
    28    21    28  am
    29    21    31   2
    30    22    30  ar
    31    22    32  ar
    32    23    33   1
    33    34    23   1
    34    28    24   1
    35    29    25   1
    36    29    26   1
    37    27    29   1
    38     1    35   1
    39     2    36   1
    40     3    37   1
    41     4    38   1
    42     5    39   1
    43     6    40   1
    44     7    41   1
    45     8    42   1
    46     9    43   1
    47    10    44   1
    48    11    45   1
    49    19    46   1
    50    19    47   1
    51    20    48   1
    52    23    49   1
    53    23    50   1
    54    24    51   1
    55    24    52   1
    56    25    53   1
    57    25    54   1
    58    26    55   1
    59    26    56   1
    60    27    57   1
    61    27    58   1
    62    28    59   1
    63    29    60   1
@<TRIPOS>SUBSTRUCTURE
     1  N44      1

