@<TRIPOS>MOLECULE
3zsx_ligand_082
    60    63
SMALL
GAST_HUCK
****
This file was generated by PARSER (from files_GN.cpp)

@<TRIPOS>ATOM
      1 C1        -10.7125   51.5081    2.9668 C.ar        1 N44      -0.0687
      2 C2        -10.7530   45.6882   -1.8596 C.ar        1 N44      -0.0630
      3 C3        -11.0599   51.8623    1.6508 C.ar        1 N44      -0.0685
      4 C4        -11.4599   50.5324    3.6491 C.ar        1 N44      -0.0685
      5 C5        -11.5599   45.2630   -2.9231 C.ar        1 N44      -0.0640
      6 C6        -11.3275   46.3897   -0.7895 C.ar        1 N44      -0.0483
      7 C7        -12.1522   51.2392    1.0173 C.ar        1 N44      -0.0584
      8 C8        -12.5592   49.9185    3.0186 C.ar        1 N44      -0.0584
      9 C9        -12.9392   45.5261   -2.9116 C.ar        1 N44      -0.0493
     10 C10       -16.5311   49.2818   -3.4527 C.ar        1 N44      -0.0712
     11 C11       -15.9612   50.3984   -4.0822 C.ar        1 N44      -0.0449
     12 C12       -12.7136   46.6901   -0.7676 C.ar        1 N44       0.0564
     13 C13       -16.0814   47.8996   -5.4280 C.ar        1 N44       0.0376
     14 C14       -12.9220   50.2643    1.6954 C.ar        1 N44      -0.0211
     15 C15       -13.5473   46.2247   -1.8370 C.ar        1 N44       0.0219
     16 C16       -16.5953   48.0203   -4.0977 C.ar        1 N44      -0.0032
     17 C17       -15.4531   50.2619   -5.3790 C.ar        1 N44       0.1200
     18 C18       -15.5131   49.0464   -6.0402 C.ar        1 N44       0.1327
     19 C19       -15.8250   43.5204   -5.0286 C.2         1 N44      -0.1125
     20 C20       -16.6709   43.8754   -4.0555 C.2         1 N44      -0.0447
     21 C21       -13.1719   47.4612    0.2842 C.2         1 N44       0.2021
     22 C22       -16.1287   46.7053   -6.1744 C.2         1 N44       0.0515
     23 C23       -14.8224   50.5718   -7.4106 C.3         1 N44       0.1864
     24 C24       -14.0830   49.6230    1.0186 C.3         1 N44       0.0638
     25 C25       -15.0292   46.4630   -1.8256 C.3         1 N44       0.0086
     26 C26       -17.0393   46.8342   -3.2971 C.3         1 N44       0.0003
     27 C27       -16.2596   44.4990   -2.8074 C.3         1 N44      -0.0011
     28 N28       -13.6679   48.6662    0.0422 N.am        1 N44      -0.2760
     29 N29       -15.8734   45.9391   -2.9698 N.4         1 N44       0.2715
     30 O30       -17.2698   45.9786   -6.2354 O.co2       1 N44      -0.5668
     31 O31       -12.9964   47.0665    1.4359 O.2         1 N44      -0.3884
     32 O32       -15.1080   46.3539   -6.9889 O.co2       1 N44      -0.5668
     33 O33       -14.8799   51.2177   -6.1291 O.3         1 N44      -0.2947
     34 O34       -14.9809   49.1479   -7.2832 O.3         1 N44      -0.2890
     35 H1         -9.9159   51.9538    3.4228 H           1 N44       0.0559
     36 H2         -9.7534   45.4930   -1.8656 H           1 N44       0.0572
     37 H3        -10.5178   52.5724    1.1533 H           1 N44       0.0599
     38 H4        -11.2021   50.2659    4.6022 H           1 N44       0.0599
     39 H5        -11.1436   44.7585   -3.7114 H           1 N44       0.0635
     40 H6        -10.7134   46.7125   -0.0417 H           1 N44       0.0651
     41 H7        -12.3907   51.5107    0.0589 H           1 N44       0.0557
     42 H8        -13.0875   49.2072    3.5326 H           1 N44       0.0557
     43 H9        -13.4869   45.1880   -3.7071 H           1 N44       0.0570
     44 H10       -16.8572   49.3885   -2.4889 H           1 N44       0.0445
     45 H11       -15.8949   51.2980   -3.6013 H           1 N44       0.0514
     46 H12       -16.1817   43.0771   -5.8478 H           1 N44       0.0292
     47 H13       -14.8444   43.6523   -4.9379 H           1 N44       0.0292
     48 H14       -17.6319   43.6502   -4.1721 H           1 N44       0.0725
     49 H15       -13.8620   50.7888   -7.8794 H           1 N44       0.0973
     50 H16       -15.6196   50.9653   -8.0496 H           1 N44       0.0973
     51 H17       -14.6676   50.3962    0.5156 H           1 N44       0.0683
     52 H18       -14.7488   49.1407    1.7357 H           1 N44       0.0683
     53 H19       -15.1564   47.5433   -1.7614 H           1 N44       0.0995
     54 H20       -15.4317   46.0591   -0.8869 H           1 N44       0.0995
     55 H21       -17.8095   46.3116   -3.8661 H           1 N44       0.0966
     56 H22       -17.5376   47.1374   -2.3667 H           1 N44       0.0966
     57 H23       -15.4250   43.9171   -2.3981 H           1 N44       0.0998
     58 H24       -17.0823   44.4199   -2.0834 H           1 N44       0.0998
     59 H25       -13.7554   48.9289   -0.8907 H           1 N44       0.1869
     60 H26       -15.2836   45.9666   -3.7993 H           1 N44       0.2082
@<TRIPOS>BOND
     1     3     1  ar
     2     4     1  ar
     3     5     2  ar
     4     6     2  ar
     5     7     3  ar
     6     8     4  ar
     7     9     5  ar
     8    12     6  ar
     9    14     7  ar
    10    14     8  ar
    11    15     9  ar
    12    10    11  ar
    13    16    10  ar
    14    11    17  ar
    15    15    12  ar
    16    12    21   1
    17    16    13  ar
    18    13    18  ar
    19    13    22   1
    20    24    14   1
    21    25    15   1
    22    26    16   1
    23    18    17  ar
    24    17    33   1
    25    18    34   1
    26    20    19   2
    27    27    20   1
    28    21    28  am
    29    21    31   2
    30    22    30  ar
    31    22    32  ar
    32    23    33   1
    33    34    23   1
    34    28    24   1
    35    29    25   1
    36    29    26   1
    37    27    29   1
    38     1    35   1
    39     2    36   1
    40     3    37   1
    41     4    38   1
    42     5    39   1
    43     6    40   1
    44     7    41   1
    45     8    42   1
    46     9    43   1
    47    10    44   1
    48    11    45   1
    49    19    46   1
    50    19    47   1
    51    20    48   1
    52    23    49   1
    53    23    50   1
    54    24    51   1
    55    24    52   1
    56    25    53   1
    57    25    54   1
    58    26    55   1
    59    26    56   1
    60    27    57   1
    61    27    58   1
    62    28    59   1
    63    29    60   1
@<TRIPOS>SUBSTRUCTURE
     1  N44      1

