@<TRIPOS>MOLECULE
3zsx_ligand_089
    60    63
SMALL
GAST_HUCK
****
This file was generated by PARSER (from files_GN.cpp)

@<TRIPOS>ATOM
      1 C1        -22.3146   49.2946   -0.7337 C.ar        1 N44      -0.0687
      2 C2        -16.0025   44.2697   -4.4796 C.ar        1 N44      -0.0630
      3 C3        -22.9518   48.1389   -0.2456 C.ar        1 N44      -0.0685
      4 C4        -21.0270   49.2000   -1.2927 C.ar        1 N44      -0.0685
      5 C5        -15.8488   45.0492   -5.6327 C.ar        1 N44      -0.0640
      6 C6        -17.0953   44.4923   -3.6287 C.ar        1 N44      -0.0483
      7 C7        -22.3092   46.8906   -0.3290 C.ar        1 N44      -0.0584
      8 C8        -20.3775   47.9537   -1.3604 C.ar        1 N44      -0.0584
      9 C9        -16.7443   46.0957   -5.8996 C.ar        1 N44      -0.0493
     10 C10       -15.9682   51.3601   -3.7991 C.ar        1 N44      -0.0712
     11 C11       -15.2778   52.5789   -3.9469 C.ar        1 N44      -0.0449
     12 C12       -18.0475   45.5041   -3.9165 C.ar        1 N44       0.0564
     13 C13       -15.1168   50.5785   -5.9696 C.ar        1 N44       0.0376
     14 C14       -21.0095   46.7799   -0.8827 C.ar        1 N44      -0.0211
     15 C15       -17.8266   46.3729   -5.0305 C.ar        1 N44       0.0219
     16 C16       -15.9192   50.3511   -4.8007 C.ar        1 N44      -0.0032
     17 C17       -14.5226   52.7922   -5.1069 C.ar        1 N44       0.1200
     18 C18       -14.4485   51.8209   -6.0900 C.ar        1 N44       0.1327
     19 C19       -19.1756   51.6987   -3.9359 C.2         1 N44      -0.1125
     20 C20       -19.4615   50.5487   -4.5662 C.2         1 N44      -0.0447
     21 C21       -19.2141   45.5383   -3.1638 C.2         1 N44       0.2021
     22 C22       -14.9533   49.6373   -7.0144 C.2         1 N44       0.0515
     23 C23       -13.3141   53.5707   -6.7153 C.3         1 N44       0.1864
     24 C24       -20.3208   45.4639   -0.9743 C.3         1 N44       0.0638
     25 C25       -18.6419   47.6035   -5.3118 C.3         1 N44       0.0086
     26 C26       -16.7336   49.1041   -4.5856 C.3         1 N44       0.0003
     27 C27       -18.7652   50.0730   -5.7570 C.3         1 N44      -0.0011
     28 N28       -19.1823   45.4738   -1.8377 N.am        1 N44      -0.2760
     29 N29       -17.8662   48.8781   -5.5581 N.4         1 N44       0.2715
     30 O30       -14.7762   50.0265   -8.2976 O.co2       1 N44      -0.5668
     31 O31       -20.2828   45.5832   -3.7641 O.2         1 N44      -0.3884
     32 O32       -14.7674   48.3275   -6.7497 O.co2       1 N44      -0.5668
     33 O33       -13.7784   53.8770   -5.3906 O.3         1 N44      -0.2947
     34 O34       -13.6189   52.2147   -7.0817 O.3         1 N44      -0.2890
     35 H1        -22.7823   50.2035   -0.6759 H           1 N44       0.0559
     36 H2        -15.3423   43.5154   -4.2765 H           1 N44       0.0572
     37 H3        -23.8863   48.2100    0.1676 H           1 N44       0.0599
     38 H4        -20.5677   50.0384   -1.6596 H           1 N44       0.0599
     39 H5        -15.0740   44.8649   -6.2713 H           1 N44       0.0635
     40 H6        -17.2130   43.8758   -2.8195 H           1 N44       0.0651
     41 H7        -22.7962   46.0623    0.0174 H           1 N44       0.0557
     42 H8        -19.4462   47.9073   -1.7754 H           1 N44       0.0557
     43 H9        -16.5931   46.6632   -6.7397 H           1 N44       0.0570
     44 H10       -16.5138   51.2196   -2.9417 H           1 N44       0.0445
     45 H11       -15.3194   53.2945   -3.2185 H           1 N44       0.0514
     46 H12       -19.7061   51.9789   -3.1438 H           1 N44       0.0292
     47 H13       -18.4379   52.2869   -4.2446 H           1 N44       0.0292
     48 H14       -20.2037   49.9945   -4.2033 H           1 N44       0.0725
     49 H15       -12.2336   53.7222   -6.7659 H           1 N44       0.0973
     50 H16       -13.7917   54.2501   -7.4267 H           1 N44       0.0973
     51 H17       -21.0032   44.6773   -1.3133 H           1 N44       0.0683
     52 H18       -19.9862   45.1842    0.0244 H           1 N44       0.0683
     53 H19       -19.3359   47.7944   -4.4950 H           1 N44       0.0995
     54 H20       -19.2378   47.3820   -6.2015 H           1 N44       0.0995
     55 H21       -17.1509   49.0694   -3.5706 H           1 N44       0.0966
     56 H22       -16.0280   48.2741   -4.6569 H           1 N44       0.0966
     57 H23       -18.1723   50.8776   -6.1979 H           1 N44       0.0998
     58 H24       -19.5221   49.8355   -6.5063 H           1 N44       0.0998
     59 H25       -18.3066   45.4345   -1.4180 H           1 N44       0.1869
     60 H26       -17.4232   48.7374   -6.4699 H           1 N44       0.2082
@<TRIPOS>BOND
     1     3     1  ar
     2     4     1  ar
     3     5     2  ar
     4     6     2  ar
     5     7     3  ar
     6     8     4  ar
     7     9     5  ar
     8    12     6  ar
     9    14     7  ar
    10    14     8  ar
    11    15     9  ar
    12    10    11  ar
    13    16    10  ar
    14    11    17  ar
    15    15    12  ar
    16    12    21   1
    17    16    13  ar
    18    13    18  ar
    19    13    22   1
    20    24    14   1
    21    25    15   1
    22    26    16   1
    23    18    17  ar
    24    17    33   1
    25    18    34   1
    26    20    19   2
    27    27    20   1
    28    21    28  am
    29    21    31   2
    30    22    30  ar
    31    22    32  ar
    32    23    33   1
    33    34    23   1
    34    28    24   1
    35    29    25   1
    36    29    26   1
    37    27    29   1
    38     1    35   1
    39     2    36   1
    40     3    37   1
    41     4    38   1
    42     5    39   1
    43     6    40   1
    44     7    41   1
    45     8    42   1
    46     9    43   1
    47    10    44   1
    48    11    45   1
    49    19    46   1
    50    19    47   1
    51    20    48   1
    52    23    49   1
    53    23    50   1
    54    24    51   1
    55    24    52   1
    56    25    53   1
    57    25    54   1
    58    26    55   1
    59    26    56   1
    60    27    57   1
    61    27    58   1
    62    28    59   1
    63    29    60   1
@<TRIPOS>SUBSTRUCTURE
     1  N44      1

