@<TRIPOS>MOLECULE
3zsx_ligand_011
    60    63
SMALL
GAST_HUCK
****
This file was generated by PARSER (from files_GN.cpp)

@<TRIPOS>ATOM
      1 C1        -12.2892   49.3229    3.8073 C.ar        1 N44      -0.0687
      2 C2        -11.6412   43.0376   -1.5670 C.ar        1 N44      -0.0630
      3 C3        -13.1159   50.1842    3.0651 C.ar        1 N44      -0.0685
      4 C4        -11.5958   48.2868    3.1568 C.ar        1 N44      -0.0685
      5 C5        -12.9095   42.4501   -1.6316 C.ar        1 N44      -0.0640
      6 C6        -11.5192   44.4340   -1.6093 C.ar        1 N44      -0.0483
      7 C7        -13.2645   49.9973    1.6778 C.ar        1 N44      -0.0584
      8 C8        -11.7288   48.1138    1.7658 C.ar        1 N44      -0.0584
      9 C9        -14.0498   43.2612   -1.7320 C.ar        1 N44      -0.0493
     10 C10       -16.0706   48.1886   -5.6372 C.ar        1 N44      -0.0712
     11 C11       -16.2982   48.6092   -6.9616 C.ar        1 N44      -0.0449
     12 C12       -12.6589   45.2748   -1.7332 C.ar        1 N44       0.0564
     13 C13       -18.2580   47.0858   -5.5857 C.ar        1 N44       0.0376
     14 C14       -12.5795   48.9543    1.0064 C.ar        1 N44      -0.0211
     15 C15       -13.9554   44.6751   -1.8295 C.ar        1 N44       0.0219
     16 C16       -17.0142   47.3830   -4.9440 C.ar        1 N44      -0.0032
     17 C17       -17.4932   48.2436   -7.5931 C.ar        1 N44       0.1200
     18 C18       -18.4580   47.5156   -6.9164 C.ar        1 N44       0.1327
     19 C19       -16.6564   43.1947   -4.5076 C.2         1 N44      -0.1125
     20 C20       -16.1890   44.2836   -5.1258 C.2         1 N44      -0.0447
     21 C21       -12.4291   46.6479   -1.7017 C.2         1 N44       0.2021
     22 C22       -19.3124   46.3835   -4.9678 C.2         1 N44       0.0515
     23 C23       -19.1928   47.9899   -8.9067 C.3         1 N44       0.1864
     24 C24       -12.7165   48.7691   -0.4642 C.3         1 N44       0.0638
     25 C25       -15.2240   45.4344   -2.1064 C.3         1 N44       0.0086
     26 C26       -16.6336   46.8716   -3.5832 C.3         1 N44       0.0003
     27 C27       -15.1014   45.1191   -4.6348 C.3         1 N44      -0.0011
     28 N28       -13.0300   47.4075   -0.7936 N.am        1 N44      -0.2760
     29 N29       -15.3639   46.0546   -3.4768 N.4         1 N44       0.2715
     30 O30       -19.2210   45.0452   -4.8066 O.co2       1 N44      -0.5668
     31 O31       -11.5161   47.1019   -2.3830 O.2         1 N44      -0.3884
     32 O32       -20.5529   46.9231   -4.9353 O.co2       1 N44      -0.5668
     33 O33       -17.8530   48.5111   -8.8631 O.3         1 N44      -0.2947
     34 O34       -19.5165   47.2548   -7.7146 O.3         1 N44      -0.2890
     35 H1        -12.1873   49.4543    4.8163 H           1 N44       0.0559
     36 H2        -10.8082   42.4510   -1.4889 H           1 N44       0.0572
     37 H3        -13.6111   50.9463    3.5352 H           1 N44       0.0599
     38 H4        -10.9927   47.6612    3.6972 H           1 N44       0.0599
     39 H5        -12.9984   41.4328   -1.6057 H           1 N44       0.0635
     40 H6        -10.5779   44.8265   -1.5161 H           1 N44       0.0651
     41 H7        -13.8670   50.6396    1.1583 H           1 N44       0.0557
     42 H8        -11.2096   47.3584    1.3112 H           1 N44       0.0557
     43 H9        -14.9607   42.8009   -1.7502 H           1 N44       0.0570
     44 H10       -15.1859   48.4464   -5.1945 H           1 N44       0.0445
     45 H11       -15.5952   49.1556   -7.4650 H           1 N44       0.0514
     46 H12       -17.3969   42.6725   -4.9167 H           1 N44       0.0292
     47 H13       -16.2704   42.8811   -3.6499 H           1 N44       0.0292
     48 H14       -16.5959   44.5185   -6.0040 H           1 N44       0.0725
     49 H15       -19.3014   47.3362   -9.7741 H           1 N44       0.0973
     50 H16       -19.8960   48.8184   -9.0120 H           1 N44       0.0973
     51 H17       -11.7848   49.1055   -0.9280 H           1 N44       0.0683
     52 H18       -13.5176   49.3959   -0.8635 H           1 N44       0.0683
     53 H19       -15.3048   46.2203   -1.3554 H           1 N44       0.0995
     54 H20       -16.0957   44.7982   -1.9436 H           1 N44       0.0995
     55 H21       -17.4564   46.2941   -3.1567 H           1 N44       0.0966
     56 H22       -16.5146   47.7506   -2.9411 H           1 N44       0.0966
     57 H23       -14.7838   45.7452   -5.4730 H           1 N44       0.0998
     58 H24       -14.2408   44.4784   -4.4350 H           1 N44       0.0998
     59 H25       -13.7070   46.9822   -0.2478 H           1 N44       0.1869
     60 H26       -14.6071   46.7463   -3.5293 H           1 N44       0.2082
@<TRIPOS>BOND
     1     3     1  ar
     2     4     1  ar
     3     5     2  ar
     4     6     2  ar
     5     7     3  ar
     6     8     4  ar
     7     9     5  ar
     8    12     6  ar
     9    14     7  ar
    10    14     8  ar
    11    15     9  ar
    12    10    11  ar
    13    16    10  ar
    14    11    17  ar
    15    15    12  ar
    16    12    21   1
    17    16    13  ar
    18    13    18  ar
    19    13    22   1
    20    24    14   1
    21    25    15   1
    22    26    16   1
    23    18    17  ar
    24    17    33   1
    25    18    34   1
    26    20    19   2
    27    27    20   1
    28    21    28  am
    29    21    31   2
    30    22    30  ar
    31    22    32  ar
    32    23    33   1
    33    34    23   1
    34    28    24   1
    35    29    25   1
    36    29    26   1
    37    27    29   1
    38     1    35   1
    39     2    36   1
    40     3    37   1
    41     4    38   1
    42     5    39   1
    43     6    40   1
    44     7    41   1
    45     8    42   1
    46     9    43   1
    47    10    44   1
    48    11    45   1
    49    19    46   1
    50    19    47   1
    51    20    48   1
    52    23    49   1
    53    23    50   1
    54    24    51   1
    55    24    52   1
    56    25    53   1
    57    25    54   1
    58    26    55   1
    59    26    56   1
    60    27    57   1
    61    27    58   1
    62    28    59   1
    63    29    60   1
@<TRIPOS>SUBSTRUCTURE
     1  N44      1

