@<TRIPOS>MOLECULE
3zsx_ligand_090
    60    63
SMALL
GAST_HUCK
****
This file was generated by PARSER (from files_GN.cpp)

@<TRIPOS>ATOM
      1 C1        -19.4878   46.4869   -2.7773 C.ar        1 N44      -0.0687
      2 C2        -18.5492   48.7300  -11.6819 C.ar        1 N44      -0.0630
      3 C3        -20.4668   47.4579   -3.0422 C.ar        1 N44      -0.0685
      4 C4        -19.0549   45.6298   -3.8050 C.ar        1 N44      -0.0685
      5 C5        -17.2103   48.3766  -11.4762 C.ar        1 N44      -0.0640
      6 C6        -19.4456   48.7237  -10.5977 C.ar        1 N44      -0.0483
      7 C7        -21.0189   47.5683   -4.3329 C.ar        1 N44      -0.0584
      8 C8        -19.6107   45.7374   -5.0941 C.ar        1 N44      -0.0584
      9 C9        -16.7657   48.0418  -10.1893 C.ar        1 N44      -0.0493
     10 C10       -13.8949   51.3376   -6.2360 C.ar        1 N44      -0.0712
     11 C11       -13.5426   52.6198   -5.7735 C.ar        1 N44      -0.0449
     12 C12       -19.0179   48.3766   -9.2913 C.ar        1 N44       0.0564
     13 C13       -15.9985   52.2094   -7.1284 C.ar        1 N44       0.0376
     14 C14       -20.6020   46.7060   -5.3760 C.ar        1 N44      -0.0211
     15 C15       -17.6398   48.0642   -9.0734 C.ar        1 N44       0.0219
     16 C16       -15.1236   51.1035   -6.9141 C.ar        1 N44      -0.0032
     17 C17       -14.4333   53.6827   -5.9807 C.ar        1 N44       0.1200
     18 C18       -15.6328   53.4834   -6.6454 C.ar        1 N44       0.1327
     19 C19       -16.3394   47.6628   -3.5252 C.2         1 N44      -0.1125
     20 C20       -16.1601   47.9622   -4.8208 C.2         1 N44      -0.0447
     21 C21       -19.9933   48.2845   -8.3034 C.2         1 N44       0.2021
     22 C22       -17.2029   52.0900   -7.8365 C.2         1 N44       0.0515
     23 C23       -15.5505   55.5253   -5.9298 C.3         1 N44       0.1864
     24 C24       -21.2006   46.8009   -6.7329 C.3         1 N44       0.0638
     25 C25       -17.0518   47.8305   -7.7163 C.3         1 N44       0.0086
     26 C26       -15.4336   49.7281   -7.4233 C.3         1 N44       0.0003
     27 C27       -16.9213   49.0045   -5.4960 C.3         1 N44      -0.0011
     28 N28       -20.1950   47.1179   -7.7001 N.am        1 N44      -0.2760
     29 N29       -16.7405   49.1150   -6.9864 N.4         1 N44       0.2715
     30 O30       -18.3736   52.1831   -7.1696 O.co2       1 N44      -0.5668
     31 O31       -20.7376   49.2362   -8.1064 O.2         1 N44      -0.3884
     32 O32       -17.2024   52.3000   -9.1707 O.co2       1 N44      -0.5668
     33 O33       -14.2557   54.9716   -5.6358 O.3         1 N44      -0.2947
     34 O34       -16.3098   54.6438   -6.7797 O.3         1 N44      -0.2890
     35 H1        -19.0953   46.3992   -1.8356 H           1 N44       0.0559
     36 H2        -18.8730   48.9754  -12.6191 H           1 N44       0.0572
     37 H3        -20.7893   48.0757   -2.2945 H           1 N44       0.0599
     38 H4        -18.3422   44.9242   -3.6122 H           1 N44       0.0599
     39 H5        -16.5559   48.3748  -12.2625 H           1 N44       0.0635
     40 H6        -20.4280   48.9460  -10.7875 H           1 N44       0.0651
     41 H7        -21.7401   48.2741   -4.4995 H           1 N44       0.0557
     42 H8        -19.2875   45.0983   -5.8256 H           1 N44       0.0557
     43 H9        -15.7790   47.8020  -10.0720 H           1 N44       0.0570
     44 H10       -13.2372   50.5718   -6.0797 H           1 N44       0.0445
     45 H11       -12.6569   52.7783   -5.2924 H           1 N44       0.0514
     46 H12       -15.8327   46.9172   -3.1081 H           1 N44       0.0292
     47 H13       -16.9869   48.1667   -2.9664 H           1 N44       0.0292
     48 H14       -15.5059   47.4212   -5.3369 H           1 N44       0.0725
     49 H15       -15.4344   56.4963   -6.4183 H           1 N44       0.0973
     50 H16       -16.0968   55.6730   -4.9922 H           1 N44       0.0973
     51 H17       -22.0204   47.5233   -6.7539 H           1 N44       0.0683
     52 H18       -21.6307   45.8352   -7.0081 H           1 N44       0.0683
     53 H19       -16.1437   47.2231   -7.7923 H           1 N44       0.0995
     54 H20       -17.7378   47.2139   -7.1362 H           1 N44       0.0995
     55 H21       -14.6278   49.0354   -7.1666 H           1 N44       0.0966
     56 H22       -15.4315   49.8120   -8.5118 H           1 N44       0.0966
     57 H23       -16.6860   49.9617   -5.0224 H           1 N44       0.0998
     58 H24       -17.9866   48.8288   -5.3097 H           1 N44       0.0998
     59 H25       -19.5883   46.3954   -7.9357 H           1 N44       0.1869
     60 H26       -17.4679   49.7720   -7.2715 H           1 N44       0.2082
@<TRIPOS>BOND
     1     3     1  ar
     2     4     1  ar
     3     5     2  ar
     4     6     2  ar
     5     7     3  ar
     6     8     4  ar
     7     9     5  ar
     8    12     6  ar
     9    14     7  ar
    10    14     8  ar
    11    15     9  ar
    12    10    11  ar
    13    16    10  ar
    14    11    17  ar
    15    15    12  ar
    16    12    21   1
    17    16    13  ar
    18    13    18  ar
    19    13    22   1
    20    24    14   1
    21    25    15   1
    22    26    16   1
    23    18    17  ar
    24    17    33   1
    25    18    34   1
    26    20    19   2
    27    27    20   1
    28    21    28  am
    29    21    31   2
    30    22    30  ar
    31    22    32  ar
    32    23    33   1
    33    34    23   1
    34    28    24   1
    35    29    25   1
    36    29    26   1
    37    27    29   1
    38     1    35   1
    39     2    36   1
    40     3    37   1
    41     4    38   1
    42     5    39   1
    43     6    40   1
    44     7    41   1
    45     8    42   1
    46     9    43   1
    47    10    44   1
    48    11    45   1
    49    19    46   1
    50    19    47   1
    51    20    48   1
    52    23    49   1
    53    23    50   1
    54    24    51   1
    55    24    52   1
    56    25    53   1
    57    25    54   1
    58    26    55   1
    59    26    56   1
    60    27    57   1
    61    27    58   1
    62    28    59   1
    63    29    60   1
@<TRIPOS>SUBSTRUCTURE
     1  N44      1

