@<TRIPOS>MOLECULE
3zsx_ligand_078
    60    63
SMALL
GAST_HUCK
****
This file was generated by PARSER (from files_GN.cpp)

@<TRIPOS>ATOM
      1 C1         -8.7624   45.0561    2.7891 C.ar        1 N44      -0.0687
      2 C2         -5.9259   43.9959   10.0265 C.ar        1 N44      -0.0630
      3 C3         -7.7020   45.7925    3.3544 C.ar        1 N44      -0.0685
      4 C4         -8.7011   43.6505    2.7543 C.ar        1 N44      -0.0685
      5 C5         -5.3470   42.9770   10.7971 C.ar        1 N44      -0.0640
      6 C6         -5.6321   44.0909    8.6577 C.ar        1 N44      -0.0483
      7 C7         -6.5810   45.1205    3.8812 C.ar        1 N44      -0.0584
      8 C8         -7.5747   42.9822    3.2724 C.ar        1 N44      -0.0584
      9 C9         -4.4886   42.0476   10.1964 C.ar        1 N44      -0.0493
     10 C10        -5.4046   36.8104    8.6634 C.ar        1 N44      -0.0712
     11 C11        -6.5310   36.0089    8.9061 C.ar        1 N44      -0.0449
     12 C12        -4.7782   43.1465    8.0348 C.ar        1 N44       0.0564
     13 C13        -5.7921   38.0265   10.7511 C.ar        1 N44       0.0376
     14 C14        -6.5001   43.7066    3.8376 C.ar        1 N44      -0.0211
     15 C15        -4.2055   42.0897    8.8086 C.ar        1 N44       0.0219
     16 C16        -5.0345   37.8554    9.5471 C.ar        1 N44      -0.0032
     17 C17        -7.2936   36.2253   10.0617 C.ar        1 N44       0.1200
     18 C18        -6.9221   37.2003   10.9742 C.ar        1 N44       0.1327
     19 C19        -2.4410   38.0021    5.1145 C.2         1 N44      -0.1125
     20 C20        -2.6851   38.5329    6.3191 C.2         1 N44      -0.0447
     21 C21        -4.5190   43.3240    6.6852 C.2         1 N44       0.2021
     22 C22        -5.4568   38.9531   11.7567 C.2         1 N44       0.0515
     23 C23        -8.7113   36.1906   11.7081 C.3         1 N44       0.1864
     24 C24        -5.3073   43.0060    4.3701 C.3         1 N44       0.0638
     25 C25        -3.3274   41.0132    8.2441 C.3         1 N44       0.0086
     26 C26        -3.8446   38.6983    9.1907 C.3         1 N44       0.0003
     27 C27        -3.9627   39.1340    6.6852 C.3         1 N44      -0.0011
     28 N28        -5.3974   42.8899    5.7915 N.am        1 N44      -0.2760
     29 N29        -4.0746   39.7027    8.0762 N.4         1 N44       0.2715
     30 O30        -6.3301   39.9199   12.1179 O.co2       1 N44      -0.5668
     31 O31        -3.5011   43.9215    6.3718 O.2         1 N44      -0.3884
     32 O32        -4.5329   38.5795   12.6816 O.co2       1 N44      -0.5668
     33 O33        -8.3818   35.5409   10.4659 O.3         1 N44      -0.2947
     34 O34        -7.7264   37.1733   12.0654 O.3         1 N44      -0.2890
     35 H1         -9.5774   45.5436    2.4114 H           1 N44       0.0559
     36 H2         -6.5575   44.6722   10.4628 H           1 N44       0.0572
     37 H3         -7.7490   46.8130    3.3825 H           1 N44       0.0599
     38 H4         -9.4736   43.1183    2.3553 H           1 N44       0.0599
     39 H5         -5.5504   42.9153   11.7967 H           1 N44       0.0635
     40 H6         -6.0459   44.8585    8.1206 H           1 N44       0.0651
     41 H7         -5.8203   45.6712    4.2858 H           1 N44       0.0557
     42 H8         -7.5504   41.9627    3.2372 H           1 N44       0.0557
     43 H9         -4.0525   41.3356   10.7861 H           1 N44       0.0570
     44 H10        -4.8456   36.6253    7.8259 H           1 N44       0.0445
     45 H11        -6.7898   35.2690    8.2493 H           1 N44       0.0514
     46 H12        -1.5602   37.5833    4.9307 H           1 N44       0.0292
     47 H13        -3.1293   37.9969    4.3999 H           1 N44       0.0292
     48 H14        -1.9474   38.5279    6.9863 H           1 N44       0.0725
     49 H15        -8.7874   35.4433   12.5005 H           1 N44       0.0973
     50 H16        -9.6824   36.6784   11.6145 H           1 N44       0.0973
     51 H17        -4.4033   43.5291    4.0395 H           1 N44       0.0683
     52 H18        -5.2453   41.9932    3.9703 H           1 N44       0.0683
     53 H19        -2.4467   40.8963    8.8835 H           1 N44       0.0995
     54 H20        -2.9121   41.3644    7.2988 H           1 N44       0.0995
     55 H21        -3.0135   38.0316    8.9429 H           1 N44       0.0966
     56 H22        -3.5075   39.2176   10.0854 H           1 N44       0.0966
     57 H23        -4.7546   38.3842    6.5661 H           1 N44       0.0998
     58 H24        -4.1771   39.9250    5.9600 H           1 N44       0.0998
     59 H25        -6.1631   42.3991    6.1392 H           1 N44       0.1869
     60 H26        -5.0652   39.9635    8.1342 H           1 N44       0.2082
@<TRIPOS>BOND
     1     3     1  ar
     2     4     1  ar
     3     5     2  ar
     4     6     2  ar
     5     7     3  ar
     6     8     4  ar
     7     9     5  ar
     8    12     6  ar
     9    14     7  ar
    10    14     8  ar
    11    15     9  ar
    12    10    11  ar
    13    16    10  ar
    14    11    17  ar
    15    15    12  ar
    16    12    21   1
    17    16    13  ar
    18    13    18  ar
    19    13    22   1
    20    24    14   1
    21    25    15   1
    22    26    16   1
    23    18    17  ar
    24    17    33   1
    25    18    34   1
    26    20    19   2
    27    27    20   1
    28    21    28  am
    29    21    31   2
    30    22    30  ar
    31    22    32  ar
    32    23    33   1
    33    34    23   1
    34    28    24   1
    35    29    25   1
    36    29    26   1
    37    27    29   1
    38     1    35   1
    39     2    36   1
    40     3    37   1
    41     4    38   1
    42     5    39   1
    43     6    40   1
    44     7    41   1
    45     8    42   1
    46     9    43   1
    47    10    44   1
    48    11    45   1
    49    19    46   1
    50    19    47   1
    51    20    48   1
    52    23    49   1
    53    23    50   1
    54    24    51   1
    55    24    52   1
    56    25    53   1
    57    25    54   1
    58    26    55   1
    59    26    56   1
    60    27    57   1
    61    27    58   1
    62    28    59   1
    63    29    60   1
@<TRIPOS>SUBSTRUCTURE
     1  N44      1

