@<TRIPOS>MOLECULE
3zsx_ligand_043
    60    63
SMALL
GAST_HUCK
****
This file was generated by PARSER (from files_GN.cpp)

@<TRIPOS>ATOM
      1 C1        -17.0635   49.6713   -4.3165 C.ar        1 N44      -0.0687
      2 C2        -11.9525   51.7799    2.4033 C.ar        1 N44      -0.0630
      3 C3        -17.8974   49.6221   -3.1845 C.ar        1 N44      -0.0685
      4 C4        -16.0773   50.6689   -4.4187 C.ar        1 N44      -0.0685
      5 C5        -12.0630   50.4591    2.8608 C.ar        1 N44      -0.0640
      6 C6        -12.6889   52.1956    1.2818 C.ar        1 N44      -0.0483
      7 C7        -17.7356   50.5633   -2.1486 C.ar        1 N44      -0.0584
      8 C8        -15.9367   51.6250   -3.3978 C.ar        1 N44      -0.0584
      9 C9        -12.8668   49.5427    2.1622 C.ar        1 N44      -0.0493
     10 C10        -9.8236   46.6408   -0.9772 C.ar        1 N44      -0.0712
     11 C11        -8.8393   45.6521   -0.7871 C.ar        1 N44      -0.0449
     12 C12       -13.5066   51.2812    0.5774 C.ar        1 N44       0.0564
     13 C13       -11.2126   45.6327    0.7615 C.ar        1 N44       0.0376
     14 C14       -16.7507   51.5758   -2.2424 C.ar        1 N44      -0.0211
     15 C15       -13.5394   49.9080    0.9729 C.ar        1 N44       0.0219
     16 C16       -11.0384   46.6428   -0.2367 C.ar        1 N44      -0.0032
     17 C17        -9.0654   44.6459    0.1627 C.ar        1 N44       0.1200
     18 C18       -10.2275   44.6314    0.9149 C.ar        1 N44       0.1327
     19 C19       -15.9636   44.9264   -0.9949 C.2         1 N44      -0.1125
     20 C20       -15.1574   45.7754   -0.3490 C.2         1 N44      -0.0447
     21 C21       -14.2997   51.7762   -0.4413 C.2         1 N44       0.2021
     22 C22       -12.2916   45.6054    1.6582 C.2         1 N44       0.0515
     23 C23        -9.0118   42.9126    1.4574 C.3         1 N44       0.1864
     24 C24       -16.5348   52.5405   -1.1318 C.3         1 N44       0.0638
     25 C25       -14.2146   48.8424    0.1582 C.3         1 N44       0.0086
     26 C26       -12.0186   47.7507   -0.5210 C.3         1 N44       0.0003
     27 C27       -14.1999   46.6306   -1.0327 C.3         1 N44      -0.0011
     28 N28       -15.5755   52.0570   -0.1891 N.am        1 N44      -0.2760
     29 N29       -13.4556   47.5604   -0.1030 N.4         1 N44       0.2715
     30 O30       -13.2581   44.6674    1.5305 O.co2       1 N44      -0.5668
     31 O31       -13.8195   51.8674   -1.5629 O.2         1 N44      -0.3884
     32 O32       -12.2013   46.2947    2.8148 O.co2       1 N44      -0.5668
     33 O33        -8.2306   43.6428    0.4944 O.3         1 N44      -0.2947
     34 O34       -10.2291   43.6028    1.7904 O.3         1 N44      -0.2890
     35 H1        -17.1666   48.9781   -5.0613 H           1 N44       0.0559
     36 H2        -11.3574   52.4432    2.9001 H           1 N44       0.0572
     37 H3        -18.6157   48.8960   -3.1132 H           1 N44       0.0599
     38 H4        -15.4590   50.6977   -5.2327 H           1 N44       0.0599
     39 H5        -11.5428   50.1584    3.6881 H           1 N44       0.0635
     40 H6        -12.6408   53.1810    1.0036 H           1 N44       0.0651
     41 H7        -18.3390   50.5013   -1.3248 H           1 N44       0.0557
     42 H8        -15.2134   52.3430   -3.4916 H           1 N44       0.0557
     43 H9        -12.9202   48.5852    2.5103 H           1 N44       0.0570
     44 H10        -9.6370   47.3755   -1.6667 H           1 N44       0.0445
     45 H11        -7.9714   45.6692   -1.3236 H           1 N44       0.0514
     46 H12       -16.5689   44.3295   -0.4826 H           1 N44       0.0292
     47 H13       -15.9614   44.8682   -1.9860 H           1 N44       0.0292
     48 H14       -15.1939   45.7901    0.6437 H           1 N44       0.0725
     49 H15        -8.4216   42.7592    2.3635 H           1 N44       0.0973
     50 H16        -9.2572   41.9295    1.0435 H           1 N44       0.0973
     51 H17       -17.4819   52.7033   -0.6121 H           1 N44       0.0683
     52 H18       -16.2073   53.5158   -1.5037 H           1 N44       0.0683
     53 H19       -14.4988   49.2499   -0.8099 H           1 N44       0.0995
     54 H20       -15.1362   48.6040    0.6908 H           1 N44       0.0995
     55 H21       -12.0278   47.9734   -1.5930 H           1 N44       0.0966
     56 H22       -11.5939   48.6264   -0.0248 H           1 N44       0.0966
     57 H23       -14.7144   47.2081   -1.8074 H           1 N44       0.0998
     58 H24       -13.5030   45.9630   -1.5449 H           1 N44       0.0998
     59 H25       -15.8780   51.9580    0.7288 H           1 N44       0.1869
     60 H26       -13.4304   47.0920    0.7996 H           1 N44       0.2082
@<TRIPOS>BOND
     1     3     1  ar
     2     4     1  ar
     3     5     2  ar
     4     6     2  ar
     5     7     3  ar
     6     8     4  ar
     7     9     5  ar
     8    12     6  ar
     9    14     7  ar
    10    14     8  ar
    11    15     9  ar
    12    10    11  ar
    13    16    10  ar
    14    11    17  ar
    15    15    12  ar
    16    12    21   1
    17    16    13  ar
    18    13    18  ar
    19    13    22   1
    20    24    14   1
    21    25    15   1
    22    26    16   1
    23    18    17  ar
    24    17    33   1
    25    18    34   1
    26    20    19   2
    27    27    20   1
    28    21    28  am
    29    21    31   2
    30    22    30  ar
    31    22    32  ar
    32    23    33   1
    33    34    23   1
    34    28    24   1
    35    29    25   1
    36    29    26   1
    37    27    29   1
    38     1    35   1
    39     2    36   1
    40     3    37   1
    41     4    38   1
    42     5    39   1
    43     6    40   1
    44     7    41   1
    45     8    42   1
    46     9    43   1
    47    10    44   1
    48    11    45   1
    49    19    46   1
    50    19    47   1
    51    20    48   1
    52    23    49   1
    53    23    50   1
    54    24    51   1
    55    24    52   1
    56    25    53   1
    57    25    54   1
    58    26    55   1
    59    26    56   1
    60    27    57   1
    61    27    58   1
    62    28    59   1
    63    29    60   1
@<TRIPOS>SUBSTRUCTURE
     1  N44      1

