@<TRIPOS>MOLECULE
3zsx_ligand_005
    60    63
SMALL
GAST_HUCK
****
This file was generated by PARSER (from files_GN.cpp)

@<TRIPOS>ATOM
      1 C1        -25.6115   45.6953    0.1899 C.ar        1 N44      -0.0687
      2 C2        -19.5662   49.7902   -2.1627 C.ar        1 N44      -0.0630
      3 C3        -24.4390   45.2199    0.8017 C.ar        1 N44      -0.0685
      4 C4        -25.6640   45.8426   -1.2069 C.ar        1 N44      -0.0685
      5 C5        -18.2917   49.7415   -2.7392 C.ar        1 N44      -0.0640
      6 C6        -20.2053   48.5983   -1.7838 C.ar        1 N44      -0.0483
      7 C7        -23.3154   44.8972    0.0167 C.ar        1 N44      -0.0584
      8 C8        -24.5341   45.5306   -1.9896 C.ar        1 N44      -0.0584
      9 C9        -17.6539   48.5074   -2.9233 C.ar        1 N44      -0.0493
     10 C10       -12.8947   45.2797   -2.7620 C.ar        1 N44      -0.0712
     11 C11       -11.6991   44.6145   -2.4298 C.ar        1 N44      -0.0449
     12 C12       -19.5662   47.3448   -1.9426 C.ar        1 N44       0.0564
     13 C13       -13.3723   45.6682   -0.3926 C.ar        1 N44       0.0376
     14 C14       -23.3417   45.0572   -1.3883 C.ar        1 N44      -0.0211
     15 C15       -18.2473   47.2876   -2.5044 C.ar        1 N44       0.0219
     16 C16       -13.7675   45.7931   -1.7605 C.ar        1 N44      -0.0032
     17 C17       -11.3525   44.4827   -1.0797 C.ar        1 N44       0.1200
     18 C18       -12.1594   45.0082   -0.0824 C.ar        1 N44       0.1327
     19 C19       -15.7149   43.7093   -4.3184 C.2         1 N44      -0.1125
     20 C20       -16.2465   43.3199   -3.1514 C.2         1 N44      -0.0447
     21 C21       -20.3031   46.2241   -1.5991 C.2         1 N44       0.2021
     22 C22       -14.1405   46.1875    0.6667 C.2         1 N44       0.0515
     23 C23       -10.4906   43.9563    0.8282 C.3         1 N44       0.1864
     24 C24       -22.1521   44.7047   -2.2126 C.3         1 N44       0.0638
     25 C25       -17.5361   46.0011   -2.8048 C.3         1 N44       0.0086
     26 C26       -15.0884   46.3762   -2.1809 C.3         1 N44       0.0003
     27 C27       -16.2079   44.0833   -1.9018 C.3         1 N44      -0.0011
     28 N28       -21.2657   45.8129   -2.4152 N.am        1 N44      -0.2760
     29 N29       -16.3553   45.5882   -1.9415 N.4         1 N44       0.2715
     30 O30       -14.6533   45.3594    1.6045 O.co2       1 N44      -0.5668
     31 O31       -20.0078   45.6214   -0.5743 O.2         1 N44      -0.3884
     32 O32       -13.9406   47.4763    1.0221 O.co2       1 N44      -0.5668
     33 O33       -10.2475   43.8953   -0.5890 O.3         1 N44      -0.2947
     34 O34       -11.6187   44.7944    1.1365 O.3         1 N44      -0.2890
     35 H1        -26.4295   45.9257    0.7615 H           1 N44       0.0559
     36 H2        -20.0325   50.6937   -2.0391 H           1 N44       0.0572
     37 H3        -24.4038   45.0996    1.8162 H           1 N44       0.0599
     38 H4        -26.5239   46.1701   -1.6527 H           1 N44       0.0599
     39 H5        -17.8330   50.6057   -3.0377 H           1 N44       0.0635
     40 H6        -21.1549   48.6614   -1.4069 H           1 N44       0.0651
     41 H7        -22.4808   44.5341    0.4808 H           1 N44       0.0557
     42 H8        -24.5964   45.6411   -3.0045 H           1 N44       0.0557
     43 H9        -16.7555   48.5099   -3.4025 H           1 N44       0.0570
     44 H10       -13.1342   45.3579   -3.7544 H           1 N44       0.0445
     45 H11       -11.0988   44.2241   -3.1613 H           1 N44       0.0514
     46 H12       -15.7684   43.1223   -5.1174 H           1 N44       0.0292
     47 H13       -15.2952   44.5963   -4.4227 H           1 N44       0.0292
     48 H14       -16.6848   42.4254   -3.1306 H           1 N44       0.0725
     49 H15        -9.6006   44.3461    1.3251 H           1 N44       0.0973
     50 H16       -10.6798   42.9479    1.2065 H           1 N44       0.0973
     51 H17       -22.4868   44.3759   -3.1991 H           1 N44       0.0683
     52 H18       -21.6119   43.8574   -1.7813 H           1 N44       0.0683
     53 H19       -17.2218   46.0313   -3.8530 H           1 N44       0.0995
     54 H20       -18.2736   45.1978   -2.7649 H           1 N44       0.0995
     55 H21       -15.0327   46.6467   -3.2413 H           1 N44       0.0966
     56 H22       -15.1889   47.3147   -1.6360 H           1 N44       0.0966
     57 H23       -15.3099   43.7758   -1.3598 H           1 N44       0.0998
     58 H24       -17.0317   43.7169   -1.2789 H           1 N44       0.0998
     59 H25       -21.3505   46.2819   -3.2609 H           1 N44       0.1869
     60 H26       -16.6276   45.8513   -0.9927 H           1 N44       0.2082
@<TRIPOS>BOND
     1     3     1  ar
     2     4     1  ar
     3     5     2  ar
     4     6     2  ar
     5     7     3  ar
     6     8     4  ar
     7     9     5  ar
     8    12     6  ar
     9    14     7  ar
    10    14     8  ar
    11    15     9  ar
    12    10    11  ar
    13    16    10  ar
    14    11    17  ar
    15    15    12  ar
    16    12    21   1
    17    16    13  ar
    18    13    18  ar
    19    13    22   1
    20    24    14   1
    21    25    15   1
    22    26    16   1
    23    18    17  ar
    24    17    33   1
    25    18    34   1
    26    20    19   2
    27    27    20   1
    28    21    28  am
    29    21    31   2
    30    22    30  ar
    31    22    32  ar
    32    23    33   1
    33    34    23   1
    34    28    24   1
    35    29    25   1
    36    29    26   1
    37    27    29   1
    38     1    35   1
    39     2    36   1
    40     3    37   1
    41     4    38   1
    42     5    39   1
    43     6    40   1
    44     7    41   1
    45     8    42   1
    46     9    43   1
    47    10    44   1
    48    11    45   1
    49    19    46   1
    50    19    47   1
    51    20    48   1
    52    23    49   1
    53    23    50   1
    54    24    51   1
    55    24    52   1
    56    25    53   1
    57    25    54   1
    58    26    55   1
    59    26    56   1
    60    27    57   1
    61    27    58   1
    62    28    59   1
    63    29    60   1
@<TRIPOS>SUBSTRUCTURE
     1  N44      1

