@<TRIPOS>MOLECULE
3zsx_ligand_079
    60    63
SMALL
GAST_HUCK
****
This file was generated by PARSER (from files_GN.cpp)

@<TRIPOS>ATOM
      1 C1        -17.1698   45.5323   -4.8323 C.ar        1 N44      -0.0687
      2 C2        -14.6168   51.2508    0.1138 C.ar        1 N44      -0.0630
      3 C3        -17.8763   45.3726   -3.6298 C.ar        1 N44      -0.0685
      4 C4        -15.7771   45.7283   -4.8072 C.ar        1 N44      -0.0685
      5 C5        -13.5807   51.6619    0.9659 C.ar        1 N44      -0.0640
      6 C6        -14.8553   49.8805   -0.0779 C.ar        1 N44      -0.0483
      7 C7        -17.1946   45.4036   -2.3979 C.ar        1 N44      -0.0584
      8 C8        -15.0940   45.7665   -3.5783 C.ar        1 N44      -0.0584
      9 C9        -12.7649   50.7021    1.5826 C.ar        1 N44      -0.0493
     10 C10        -7.8175   47.5390    0.0566 C.ar        1 N44      -0.0712
     11 C11        -6.9566   46.4820   -0.2749 C.ar        1 N44      -0.0449
     12 C12       -14.0593   48.8879    0.5536 C.ar        1 N44       0.0564
     13 C13        -9.7703   46.2326   -0.6613 C.ar        1 N44       0.0376
     14 C14       -15.7903   45.6049   -2.3589 C.ar        1 N44      -0.0211
     15 C15       -12.9511   49.3117    1.3614 C.ar        1 N44       0.0219
     16 C16        -9.2241   47.4462   -0.1212 C.ar        1 N44      -0.0032
     17 C17        -7.5105   45.2950   -0.7721 C.ar        1 N44       0.1200
     18 C18        -8.8789   45.1730   -0.9599 C.ar        1 N44       0.1327
     19 C19        -8.7609   45.6670    2.8085 C.2         1 N44      -0.1125
     20 C20        -9.7550   46.5596    2.9605 C.2         1 N44      -0.0447
     21 C21       -14.4407   47.5501    0.4047 C.2         1 N44       0.2021
     22 C22       -11.1439   46.0589   -0.9715 C.2         1 N44       0.0515
     23 C23        -7.8807   43.3410   -1.6085 C.3         1 N44       0.1864
     24 C24       -15.0613   45.6754   -1.0672 C.3         1 N44       0.0638
     25 C25       -11.9708   48.3661    1.9948 C.3         1 N44       0.0086
     26 C26       -10.0512   48.6169    0.3271 C.3         1 N44       0.0003
     27 C27        -9.5934   47.9933    2.7580 C.3         1 N44      -0.0011
     28 N28       -14.6553   47.0237   -0.8005 N.am        1 N44      -0.2760
     29 N29       -10.5136   48.6497    1.7621 N.4         1 N44       0.2715
     30 O30       -11.7562   46.9265   -1.8200 O.co2       1 N44      -0.5668
     31 O31       -14.6781   46.8767    1.4042 O.2         1 N44      -0.3884
     32 O32       -11.7754   44.8867   -0.7727 O.co2       1 N44      -0.5668
     33 O33        -6.8265   44.2014   -1.1500 O.3         1 N44      -0.2947
     34 O34        -9.1716   43.9693   -1.4967 O.3         1 N44      -0.2890
     35 H1        -17.6649   45.5081   -5.7228 H           1 N44       0.0559
     36 H2        -15.2125   51.9493   -0.3387 H           1 N44       0.0572
     37 H3        -18.8893   45.2405   -3.6471 H           1 N44       0.0599
     38 H4        -15.2638   45.8483   -5.6824 H           1 N44       0.0599
     39 H5        -13.4256   52.6611    1.1338 H           1 N44       0.0635
     40 H6        -15.6581   49.6235   -0.6617 H           1 N44       0.0651
     41 H7        -17.7278   45.2917   -1.5331 H           1 N44       0.0557
     42 H8        -14.0813   45.9215   -3.5775 H           1 N44       0.0557
     43 H9        -12.0173   51.0433    2.1945 H           1 N44       0.0570
     44 H10        -7.3955   48.3841    0.4558 H           1 N44       0.0445
     45 H11        -5.9450   46.5712   -0.1488 H           1 N44       0.0514
     46 H12        -8.9231   44.7034    2.9840 H           1 N44       0.0292
     47 H13        -7.8505   45.9584    2.5260 H           1 N44       0.0292
     48 H14       -10.6323   46.2235    3.2747 H           1 N44       0.0725
     49 H15        -7.8756   42.4208   -1.0178 H           1 N44       0.0973
     50 H16        -7.6997   43.0781   -2.6535 H           1 N44       0.0973
     51 H17       -14.1825   45.0264   -1.1064 H           1 N44       0.0683
     52 H18       -15.6894   45.3188   -0.2461 H           1 N44       0.0683
     53 H19       -12.1475   47.3461    1.6678 H           1 N44       0.0995
     54 H20       -12.1692   48.4092    3.0675 H           1 N44       0.0995
     55 H21       -10.8791   48.7542   -0.3597 H           1 N44       0.0966
     56 H22        -9.4675   49.5365    0.2093 H           1 N44       0.0966
     57 H23        -8.5601   48.2372    2.4813 H           1 N44       0.0998
     58 H24        -9.7475   48.4768    3.7292 H           1 N44       0.0998
     59 H25       -14.5136   47.6001   -1.5731 H           1 N44       0.1869
     60 H26       -10.4194   49.6369    2.0145 H           1 N44       0.2082
@<TRIPOS>BOND
     1     3     1  ar
     2     4     1  ar
     3     5     2  ar
     4     6     2  ar
     5     7     3  ar
     6     8     4  ar
     7     9     5  ar
     8    12     6  ar
     9    14     7  ar
    10    14     8  ar
    11    15     9  ar
    12    10    11  ar
    13    16    10  ar
    14    11    17  ar
    15    15    12  ar
    16    12    21   1
    17    16    13  ar
    18    13    18  ar
    19    13    22   1
    20    24    14   1
    21    25    15   1
    22    26    16   1
    23    18    17  ar
    24    17    33   1
    25    18    34   1
    26    20    19   2
    27    27    20   1
    28    21    28  am
    29    21    31   2
    30    22    30  ar
    31    22    32  ar
    32    23    33   1
    33    34    23   1
    34    28    24   1
    35    29    25   1
    36    29    26   1
    37    27    29   1
    38     1    35   1
    39     2    36   1
    40     3    37   1
    41     4    38   1
    42     5    39   1
    43     6    40   1
    44     7    41   1
    45     8    42   1
    46     9    43   1
    47    10    44   1
    48    11    45   1
    49    19    46   1
    50    19    47   1
    51    20    48   1
    52    23    49   1
    53    23    50   1
    54    24    51   1
    55    24    52   1
    56    25    53   1
    57    25    54   1
    58    26    55   1
    59    26    56   1
    60    27    57   1
    61    27    58   1
    62    28    59   1
    63    29    60   1
@<TRIPOS>SUBSTRUCTURE
     1  N44      1

