@<TRIPOS>MOLECULE
4de1_ligand_013
    34    37
SMALL
GAST_HUCK
****
This file was generated by PARSER (from files_GN.cpp)

@<TRIPOS>ATOM
      1 O14        -6.3759   55.4852    9.9049 O.2         1 MOL      -0.3730
      2 C13        -7.2461   54.6318   10.0470 C.2         1 MOL       0.2323
      3 C15        -7.3798   53.9916   11.2834 C.ar        1 MOL       0.0570
      4 C20        -6.3138   53.9956   12.2291 C.ar        1 MOL      -0.0265
      5 C19        -6.4989   53.4018   13.4901 C.ar        1 MOL       0.0384
      6 C23        -5.6880   53.2426   14.6035 C.2         1 MOL       0.1104
      7 N22        -6.4169   52.5854   15.5225 N.pl3       1 MOL      -0.2442
      8 N21        -7.6120   52.3303   15.0832 N.2         1 MOL      -0.3319
      9 C18        -7.7091   52.8121   13.8336 C.ar        1 MOL      -0.0092
     10 C17        -8.7796   52.7830   12.9294 C.ar        1 MOL      -0.0531
     11 C16        -8.6044   53.3626   11.6559 C.ar        1 MOL      -0.0414
     12 N12        -7.9951   54.2969    9.0015 N.am        1 MOL      -0.2325
     13 C8         -7.9860   54.9251    7.7899 C.ar        1 MOL       0.0706
     14 C7         -7.4950   54.2387    6.6612 C.ar        1 MOL      -0.0238
     15 C9         -8.4681   56.2451    7.6432 C.ar        1 MOL      -0.0372
     16 C10        -8.4694   56.8589    6.3789 C.ar        1 MOL      -0.0702
     17 C11        -7.9431   56.1831    5.2648 C.ar        1 MOL      -0.0591
     18 C6         -7.4315   54.8711    5.3967 C.ar        1 MOL       0.0268
     19 C2         -6.8680   54.2047    4.2856 C.2         1 MOL       0.1822
     20 N3         -6.4689   54.7316    3.1257 N.pl3       1 MOL      -0.1510
     21 N4         -6.0257   53.8014    2.4101 N.2         1 MOL      -0.0636
     22 N5         -6.1173   52.7345    3.0109 N.2         1 MOL      -0.1383
     23 N1         -6.6119   52.8983    4.1606 N.2         1 MOL      -0.2073
     24 H1         -5.4072   54.4177   12.0100 H           1 MOL       0.0680
     25 H2         -4.7203   53.5539   14.7149 H           1 MOL       0.1370
     26 H3         -6.0890   52.3155   16.3947 H           1 MOL       0.2935
     27 H4         -9.6716   52.3598   13.1953 H           1 MOL       0.0630
     28 H5         -9.3998   53.3444   11.0139 H           1 MOL       0.0669
     29 H6         -8.5370   53.4962    9.0799 H           1 MOL       0.2252
     30 H7         -7.1390   53.2863    6.7810 H           1 MOL       0.0543
     31 H8         -8.8320   56.7576    8.4492 H           1 MOL       0.0536
     32 H9         -8.8495   57.8014    6.2692 H           1 MOL       0.0588
     33 H10        -7.9473   56.6571    4.3574 H           1 MOL       0.0535
     34 H11        -6.4903   55.6719    2.8799 H           1 MOL       0.2708
@<TRIPOS>BOND
     1     1     2   2
     2     2     3   1
     3     2    12  am
     4     3     4  ar
     5     3    11  ar
     6     4     5  ar
     7     5     6   2
     8     5     9  ar
     9     6     7   1
    10     7     8   1
    11     8     9   2
    12     9    10  ar
    13    10    11  ar
    14    12    13   1
    15    13    14  ar
    16    13    15  ar
    17    14    18  ar
    18    15    16  ar
    19    16    17  ar
    20    17    18  ar
    21    18    19   1
    22    19    20   1
    23    19    23   2
    24    20    21   1
    25    21    22   2
    26    22    23   1
    27     4    24   1
    28     6    25   1
    29     7    26   1
    30    10    27   1
    31    11    28   1
    32    12    29   1
    33    14    30   1
    34    15    31   1
    35    16    32   1
    36    17    33   1
    37    20    34   1
@<TRIPOS>SUBSTRUCTURE
     1  MOL      2

