@<TRIPOS>MOLECULE
4de1_ligand_087
    34    37
SMALL
GAST_HUCK
****
This file was generated by PARSER (from files_GN.cpp)

@<TRIPOS>ATOM
      1 O14        -4.4332   49.4530   11.1828 O.2         1 MOL      -0.3730
      2 C13        -5.3852   49.9259   10.5690 C.2         1 MOL       0.2323
      3 C15        -6.4770   50.4237   11.2836 C.ar        1 MOL       0.0570
      4 C20        -7.8028   50.2883   10.7792 C.ar        1 MOL      -0.0265
      5 C19        -8.8784   50.8062   11.5180 C.ar        1 MOL       0.0384
      6 C23       -10.2510   50.8107   11.3248 C.2         1 MOL       0.1104
      7 N22       -10.7863   51.4491   12.3768 N.pl3       1 MOL      -0.2442
      8 N21        -9.8677   51.8460   13.2111 N.2         1 MOL      -0.3319
      9 C18        -8.6755   51.4706   12.7234 C.ar        1 MOL      -0.0092
     10 C17        -7.3830   51.6300   13.2456 C.ar        1 MOL      -0.0531
     11 C16        -6.2937   51.0882   12.5334 C.ar        1 MOL      -0.0414
     12 N12        -5.3306   50.0723    9.2476 N.am        1 MOL      -0.2325
     13 C8         -4.3262   49.6981    8.4037 C.ar        1 MOL       0.0706
     14 C7         -3.7085   48.4278    8.4719 C.ar        1 MOL      -0.0238
     15 C9         -3.9327   50.5977    7.3913 C.ar        1 MOL      -0.0372
     16 C10        -2.8928   50.2612    6.5085 C.ar        1 MOL      -0.0702
     17 C11        -2.2554   49.0098    6.6157 C.ar        1 MOL      -0.0591
     18 C6         -2.6662   48.0661    7.5888 C.ar        1 MOL       0.0268
     19 C2         -2.0563   46.7882    7.6630 C.2         1 MOL       0.1822
     20 N3         -2.5865   45.6453    8.1128 N.pl3       1 MOL      -0.1510
     21 N4         -1.7321   44.7333    7.9714 N.2         1 MOL      -0.0636
     22 N5         -0.7046   45.1967    7.4824 N.2         1 MOL      -0.1383
     23 N1         -0.8221   46.4432    7.2719 N.2         1 MOL      -0.2073
     24 H1         -7.9975   49.8023    9.9001 H           1 MOL       0.0680
     25 H2        -10.7657   50.3995   10.5420 H           1 MOL       0.1370
     26 H3        -11.7351   51.5873   12.5087 H           1 MOL       0.2935
     27 H4         -7.2384   52.1082   14.1348 H           1 MOL       0.0630
     28 H5         -5.3576   51.2132   12.9283 H           1 MOL       0.0669
     29 H6         -6.0374   50.6074    8.8517 H           1 MOL       0.2252
     30 H7         -4.0295   47.7573    9.1730 H           1 MOL       0.0543
     31 H8         -4.3840   51.5148    7.3061 H           1 MOL       0.0536
     32 H9         -2.5926   50.9335    5.7927 H           1 MOL       0.0588
     33 H10        -1.5098   48.7876    5.9543 H           1 MOL       0.0535
     34 H11        -3.4833   45.5260    8.4689 H           1 MOL       0.2708
@<TRIPOS>BOND
     1     1     2   2
     2     2     3   1
     3     2    12  am
     4     3     4  ar
     5     3    11  ar
     6     4     5  ar
     7     5     6   2
     8     5     9  ar
     9     6     7   1
    10     7     8   1
    11     8     9   2
    12     9    10  ar
    13    10    11  ar
    14    12    13   1
    15    13    14  ar
    16    13    15  ar
    17    14    18  ar
    18    15    16  ar
    19    16    17  ar
    20    17    18  ar
    21    18    19   1
    22    19    20   1
    23    19    23   2
    24    20    21   1
    25    21    22   2
    26    22    23   1
    27     4    24   1
    28     6    25   1
    29     7    26   1
    30    10    27   1
    31    11    28   1
    32    12    29   1
    33    14    30   1
    34    15    31   1
    35    16    32   1
    36    17    33   1
    37    20    34   1
@<TRIPOS>SUBSTRUCTURE
     1  MOL      2

