@<TRIPOS>MOLECULE
4de1_ligand_076
    34    37
SMALL
GAST_HUCK
****
This file was generated by PARSER (from files_GN.cpp)

@<TRIPOS>ATOM
      1 O14        -0.5386   46.4040    6.8647 O.2         1 MOL      -0.3730
      2 C13        -1.7540   46.3909    7.0213 C.2         1 MOL       0.2323
      3 C15        -2.3542   45.2096    7.3821 C.ar        1 MOL       0.0570
      4 C20        -2.9816   44.3980    6.4056 C.ar        1 MOL      -0.0265
      5 C19        -3.5874   43.1983    6.8176 C.ar        1 MOL       0.0384
      6 C23        -4.2526   42.1929    6.1386 C.2         1 MOL       0.1104
      7 N22        -4.6140   41.2788    7.0559 N.pl3       1 MOL      -0.2442
      8 N21        -4.2292   41.6260    8.2481 N.2         1 MOL      -0.3319
      9 C18        -3.5894   42.8059    8.1521 C.ar        1 MOL      -0.0092
     10 C17        -2.9796   43.6015    9.1350 C.ar        1 MOL      -0.0531
     11 C16        -2.3616   44.8083    8.7437 C.ar        1 MOL      -0.0414
     12 N12        -2.5096   47.4733    6.9412 N.am        1 MOL      -0.2325
     13 C8         -2.0583   48.7233    6.6722 C.ar        1 MOL       0.0706
     14 C7         -1.7112   49.6050    7.7179 C.ar        1 MOL      -0.0238
     15 C9         -2.0060   49.1646    5.3369 C.ar        1 MOL      -0.0372
     16 C10        -1.5831   50.4731    5.0443 C.ar        1 MOL      -0.0702
     17 C11        -1.2101   51.3434    6.0861 C.ar        1 MOL      -0.0591
     18 C6         -1.2631   50.9162    7.4309 C.ar        1 MOL       0.0268
     19 C2         -0.9058   51.7906    8.4724 C.2         1 MOL       0.1822
     20 N3         -1.6979   52.2646    9.4346 N.pl3       1 MOL      -0.1510
     21 N4         -1.0171   53.0431   10.1495 N.2         1 MOL      -0.0636
     22 N5          0.1355   53.0870    9.7240 N.2         1 MOL      -0.1383
     23 N1          0.2802   52.3597    8.6993 N.2         1 MOL      -0.2073
     24 H1         -2.9994   44.6684    5.4165 H           1 MOL       0.0680
     25 H2         -4.4261   42.1456    5.1330 H           1 MOL       0.1370
     26 H3         -5.0955   40.4605    6.8528 H           1 MOL       0.2935
     27 H4         -2.9800   43.3069   10.1131 H           1 MOL       0.0630
     28 H5         -1.9265   45.3975    9.4588 H           1 MOL       0.0669
     29 H6         -3.4636   47.3713    7.1190 H           1 MOL       0.2252
     30 H7         -1.7556   49.2807    8.6896 H           1 MOL       0.0543
     31 H8         -2.2678   48.5293    4.5753 H           1 MOL       0.0536
     32 H9         -1.5543   50.7891    4.0737 H           1 MOL       0.0588
     33 H10        -0.9134   52.2942    5.8530 H           1 MOL       0.0535
     34 H11        -2.6465   52.0775    9.5369 H           1 MOL       0.2708
@<TRIPOS>BOND
     1     1     2   2
     2     2     3   1
     3     2    12  am
     4     3     4  ar
     5     3    11  ar
     6     4     5  ar
     7     5     6   2
     8     5     9  ar
     9     6     7   1
    10     7     8   1
    11     8     9   2
    12     9    10  ar
    13    10    11  ar
    14    12    13   1
    15    13    14  ar
    16    13    15  ar
    17    14    18  ar
    18    15    16  ar
    19    16    17  ar
    20    17    18  ar
    21    18    19   1
    22    19    20   1
    23    19    23   2
    24    20    21   1
    25    21    22   2
    26    22    23   1
    27     4    24   1
    28     6    25   1
    29     7    26   1
    30    10    27   1
    31    11    28   1
    32    12    29   1
    33    14    30   1
    34    15    31   1
    35    16    32   1
    36    17    33   1
    37    20    34   1
@<TRIPOS>SUBSTRUCTURE
     1  MOL      2

