@<TRIPOS>MOLECULE
4de1_ligand_003
    34    37
SMALL
GAST_HUCK
****
This file was generated by PARSER (from files_GN.cpp)

@<TRIPOS>ATOM
      1 O14        -1.6639   53.6695   11.4956 O.2         1 MOL      -0.3730
      2 C13        -2.4614   53.1336   10.7290 C.2         1 MOL       0.2323
      3 C15        -2.0231   52.7233    9.4729 C.ar        1 MOL       0.0570
      4 C20        -2.5797   51.5596    8.8678 C.ar        1 MOL      -0.0265
      5 C19        -2.1319   51.1640    7.6001 C.ar        1 MOL       0.0384
      6 C23        -2.4503   50.0977    6.7732 C.2         1 MOL       0.1104
      7 N22        -1.7062   50.2408    5.6602 N.pl3       1 MOL      -0.2442
      8 N21        -0.9521   51.2949    5.7282 N.2         1 MOL      -0.3319
      9 C18        -1.1687   51.8947    6.9108 C.ar        1 MOL      -0.0092
     10 C17        -0.5998   53.0466    7.4738 C.ar        1 MOL      -0.0531
     11 C16        -1.0260   53.4492    8.7616 C.ar        1 MOL      -0.0414
     12 N12        -3.7540   53.0688   11.0332 N.am        1 MOL      -0.2325
     13 C8         -4.3734   53.4319   12.1926 C.ar        1 MOL       0.0706
     14 C7         -5.5194   54.2521   12.1105 C.ar        1 MOL      -0.0238
     15 C9         -3.9775   52.9379   13.4555 C.ar        1 MOL      -0.0372
     16 C10        -4.7111   53.2673   14.6116 C.ar        1 MOL      -0.0702
     17 C11        -5.8453   54.0904   14.5169 C.ar        1 MOL      -0.0591
     18 C6         -6.2606   54.5977   13.2631 C.ar        1 MOL       0.0268
     19 C2         -7.4203   55.3931   13.1473 C.2         1 MOL       0.1822
     20 N3         -7.6057   56.4554   12.3651 N.pl3       1 MOL      -0.1510
     21 N4         -8.7879   56.8511   12.5206 N.2         1 MOL      -0.0636
     22 N5         -9.3623   56.1227   13.3304 N.2         1 MOL      -0.1383
     23 N1         -8.5931   55.2229   13.7629 N.2         1 MOL      -0.2073
     24 H1         -3.2847   50.9976    9.3497 H           1 MOL       0.0680
     25 H2         -3.1178   49.3524    6.9648 H           1 MOL       0.1370
     26 H3         -1.7304   49.6281    4.9085 H           1 MOL       0.2935
     27 H4          0.1059   53.5809    6.9642 H           1 MOL       0.0630
     28 H5         -0.6172   54.2981    9.1634 H           1 MOL       0.0669
     29 H6         -4.3449   52.8190   10.3028 H           1 MOL       0.2252
     30 H7         -5.8249   54.5842   11.1906 H           1 MOL       0.0543
     31 H8         -3.1802   52.3023   13.5365 H           1 MOL       0.0536
     32 H9         -4.4296   52.8877   15.5175 H           1 MOL       0.0588
     33 H10        -6.3631   54.3249   15.3682 H           1 MOL       0.0535
     34 H11        -6.9260   56.8777   11.8127 H           1 MOL       0.2708
@<TRIPOS>BOND
     1     1     2   2
     2     2     3   1
     3     2    12  am
     4     3     4  ar
     5     3    11  ar
     6     4     5  ar
     7     5     6   2
     8     5     9  ar
     9     6     7   1
    10     7     8   1
    11     8     9   2
    12     9    10  ar
    13    10    11  ar
    14    12    13   1
    15    13    14  ar
    16    13    15  ar
    17    14    18  ar
    18    15    16  ar
    19    16    17  ar
    20    17    18  ar
    21    18    19   1
    22    19    20   1
    23    19    23   2
    24    20    21   1
    25    21    22   2
    26    22    23   1
    27     4    24   1
    28     6    25   1
    29     7    26   1
    30    10    27   1
    31    11    28   1
    32    12    29   1
    33    14    30   1
    34    15    31   1
    35    16    32   1
    36    17    33   1
    37    20    34   1
@<TRIPOS>SUBSTRUCTURE
     1  MOL      2

