@<TRIPOS>MOLECULE
4de1_ligand_020
    34    37
SMALL
GAST_HUCK
****
This file was generated by PARSER (from files_GN.cpp)

@<TRIPOS>ATOM
      1 O14        -3.6427   49.0551   13.4087 O.2         1 MOL      -0.3730
      2 C13        -2.8720   49.7973   12.8081 C.2         1 MOL       0.2323
      3 C15        -3.0454   51.1830   12.9115 C.ar        1 MOL       0.0570
      4 C20        -4.3214   51.7362   13.2248 C.ar        1 MOL      -0.0265
      5 C19        -4.4774   53.1314   13.3027 C.ar        1 MOL       0.0384
      6 C23        -5.5668   53.9520   13.5441 C.2         1 MOL       0.1104
      7 N22        -5.1168   55.2164   13.4819 N.pl3       1 MOL      -0.2442
      8 N21        -3.8437   55.2553   13.2289 N.2         1 MOL      -0.3319
      9 C18        -3.4052   53.9877   13.1047 C.ar        1 MOL      -0.0092
     10 C17        -2.1286   53.4838   12.8163 C.ar        1 MOL      -0.0531
     11 C16        -1.9601   52.0870   12.7159 C.ar        1 MOL      -0.0414
     12 N12        -1.9558   49.2757   11.9911 N.am        1 MOL      -0.2325
     13 C8         -1.7132   47.9529   11.7331 C.ar        1 MOL       0.0706
     14 C7         -1.4574   47.5523   10.3993 C.ar        1 MOL      -0.0238
     15 C9         -1.6818   46.9741   12.7489 C.ar        1 MOL      -0.0372
     16 C10        -1.4777   45.6188   12.4362 C.ar        1 MOL      -0.0702
     17 C11        -1.2974   45.2265   11.0981 C.ar        1 MOL      -0.0591
     18 C6         -1.2685   46.1876   10.0602 C.ar        1 MOL       0.0268
     19 C2         -1.0754   45.7913    8.7145 C.2         1 MOL       0.1822
     20 N3         -1.3757   44.6177    8.1507 N.pl3       1 MOL      -0.1510
     21 N4         -1.0671   44.6717    6.9354 N.2         1 MOL      -0.0636
     22 N5         -0.5833   45.7789    6.6793 N.2         1 MOL      -0.1383
     23 N1         -0.5602   46.5058    7.7094 N.2         1 MOL      -0.2073
     24 H1         -5.1408   51.1401   13.3720 H           1 MOL       0.0680
     25 H2         -6.5283   53.6560   13.7197 H           1 MOL       0.1370
     26 H3         -5.6736   56.0010   13.6031 H           1 MOL       0.2935
     27 H4         -1.3415   54.1186   12.6771 H           1 MOL       0.0630
     28 H5         -1.0223   51.7354   12.5145 H           1 MOL       0.0669
     29 H6         -1.4868   49.9077   11.4238 H           1 MOL       0.2252
     30 H7         -1.4508   48.2633    9.6652 H           1 MOL       0.0543
     31 H8         -1.7966   47.2393   13.7316 H           1 MOL       0.0536
     32 H9         -1.4653   44.9151   13.1795 H           1 MOL       0.0588
     33 H10        -1.1590   44.2327   10.8952 H           1 MOL       0.0535
     34 H11        -1.8149   43.8706    8.5920 H           1 MOL       0.2708
@<TRIPOS>BOND
     1     1     2   2
     2     2     3   1
     3     2    12  am
     4     3     4  ar
     5     3    11  ar
     6     4     5  ar
     7     5     6   2
     8     5     9  ar
     9     6     7   1
    10     7     8   1
    11     8     9   2
    12     9    10  ar
    13    10    11  ar
    14    12    13   1
    15    13    14  ar
    16    13    15  ar
    17    14    18  ar
    18    15    16  ar
    19    16    17  ar
    20    17    18  ar
    21    18    19   1
    22    19    20   1
    23    19    23   2
    24    20    21   1
    25    21    22   2
    26    22    23   1
    27     4    24   1
    28     6    25   1
    29     7    26   1
    30    10    27   1
    31    11    28   1
    32    12    29   1
    33    14    30   1
    34    15    31   1
    35    16    32   1
    36    17    33   1
    37    20    34   1
@<TRIPOS>SUBSTRUCTURE
     1  MOL      2

