@<TRIPOS>MOLECULE
4de1_ligand_059
    34    37
SMALL
GAST_HUCK
****
This file was generated by PARSER (from files_GN.cpp)

@<TRIPOS>ATOM
      1 O14        -8.0061   53.1133    7.7444 O.2         1 MOL      -0.3730
      2 C13        -6.9637   53.6743    7.4230 C.2         1 MOL       0.2323
      3 C15        -7.0337   54.7986    6.5801 C.ar        1 MOL       0.0570
      4 C20        -8.2812   55.2679    6.0837 C.ar        1 MOL      -0.0265
      5 C19        -8.3236   56.3961    5.2476 C.ar        1 MOL       0.0384
      6 C23        -9.3541   57.0931    4.6282 C.2         1 MOL       0.1104
      7 N22        -8.7818   58.0874    3.9350 N.pl3       1 MOL      -0.2442
      8 N21        -7.4918   58.0949    4.0822 N.2         1 MOL      -0.3319
      9 C18        -7.1597   57.0559    4.8764 C.ar        1 MOL      -0.0092
     10 C17        -5.9094   56.6210    5.3370 C.ar        1 MOL      -0.0531
     11 C16        -5.8527   55.5020    6.1918 C.ar        1 MOL      -0.0414
     12 N12        -5.8025   53.2695    7.9503 N.am        1 MOL      -0.2325
     13 C8         -5.6513   52.2912    8.9014 C.ar        1 MOL       0.0706
     14 C7         -5.7475   52.6300   10.2736 C.ar        1 MOL      -0.0238
     15 C9         -5.4405   50.9383    8.5470 C.ar        1 MOL      -0.0372
     16 C10        -5.4247   49.9354    9.5288 C.ar        1 MOL      -0.0702
     17 C11        -5.6262   50.2686   10.8831 C.ar        1 MOL      -0.0591
     18 C6         -5.7713   51.6221   11.2701 C.ar        1 MOL       0.0268
     19 C2         -6.0158   51.9433   12.6233 C.2         1 MOL       0.1822
     20 N3         -5.3774   52.7960   13.4314 N.pl3       1 MOL      -0.1510
     21 N4         -5.9603   52.8003   14.5386 N.2         1 MOL      -0.0636
     22 N5         -6.9493   52.0530   14.4948 N.2         1 MOL      -0.1383
     23 N1         -7.0320   51.4894   13.3762 N.2         1 MOL      -0.2073
     24 H1         -9.1628   54.8199    6.3452 H           1 MOL       0.0680
     25 H2        -10.3528   56.8979    4.6884 H           1 MOL       0.1370
     26 H3         -9.2751   58.7449    3.4081 H           1 MOL       0.2935
     27 H4         -5.0569   57.1265    5.0798 H           1 MOL       0.0630
     28 H5         -4.9302   55.1935    6.5097 H           1 MOL       0.0669
     29 H6         -5.0331   53.8267    7.7783 H           1 MOL       0.2252
     30 H7         -5.9076   53.6018   10.5337 H           1 MOL       0.0543
     31 H8         -5.3130   50.6760    7.5660 H           1 MOL       0.0536
     32 H9         -5.3011   48.9532    9.2581 H           1 MOL       0.0588
     33 H10        -5.6405   49.5187   11.5768 H           1 MOL       0.0535
     34 H11        -4.5719   53.2980   13.2135 H           1 MOL       0.2708
@<TRIPOS>BOND
     1     1     2   2
     2     2     3   1
     3     2    12  am
     4     3     4  ar
     5     3    11  ar
     6     4     5  ar
     7     5     6   2
     8     5     9  ar
     9     6     7   1
    10     7     8   1
    11     8     9   2
    12     9    10  ar
    13    10    11  ar
    14    12    13   1
    15    13    14  ar
    16    13    15  ar
    17    14    18  ar
    18    15    16  ar
    19    16    17  ar
    20    17    18  ar
    21    18    19   1
    22    19    20   1
    23    19    23   2
    24    20    21   1
    25    21    22   2
    26    22    23   1
    27     4    24   1
    28     6    25   1
    29     7    26   1
    30    10    27   1
    31    11    28   1
    32    12    29   1
    33    14    30   1
    34    15    31   1
    35    16    32   1
    36    17    33   1
    37    20    34   1
@<TRIPOS>SUBSTRUCTURE
     1  MOL      2

