@<TRIPOS>MOLECULE
4de1_ligand_042
    34    37
SMALL
GAST_HUCK
****
This file was generated by PARSER (from files_GN.cpp)

@<TRIPOS>ATOM
      1 O14        -9.1759   55.3739    9.6777 O.2         1 MOL      -0.3730
      2 C13        -9.3985   55.9718    8.6332 C.2         1 MOL       0.2323
      3 C15        -8.3865   56.0294    7.6727 C.ar        1 MOL       0.0570
      4 C20        -8.6753   56.1149    6.2812 C.ar        1 MOL      -0.0265
      5 C19        -7.6113   56.1324    5.3597 C.ar        1 MOL       0.0384
      6 C23        -7.5430   56.2102    3.9783 C.2         1 MOL       0.1104
      7 N22        -6.2456   56.2232    3.6436 N.pl3       1 MOL      -0.2442
      8 N21        -5.4893   56.1532    4.6904 N.2         1 MOL      -0.3319
      9 C18        -6.2853   56.0819    5.7715 C.ar        1 MOL      -0.0092
     10 C17        -5.9616   56.0106    7.1382 C.ar        1 MOL      -0.0531
     11 C16        -7.0217   55.9828    8.0769 C.ar        1 MOL      -0.0414
     12 N12       -10.5614   56.6029    8.4782 N.am        1 MOL      -0.2325
     13 C8        -11.5595   56.6509    9.4182 C.ar        1 MOL       0.0706
     14 C7        -12.0118   57.9059    9.8881 C.ar        1 MOL      -0.0238
     15 C9        -12.1471   55.4727    9.9323 C.ar        1 MOL      -0.0372
     16 C10       -13.1387   55.5385   10.9293 C.ar        1 MOL      -0.0702
     17 C11       -13.5433   56.7957   11.4298 C.ar        1 MOL      -0.0591
     18 C6        -12.9842   57.9875   10.9147 C.ar        1 MOL       0.0268
     19 C2        -13.3813   59.2248   11.4382 C.2         1 MOL       0.1822
     20 N3        -13.0213   59.7772   12.5913 N.pl3       1 MOL      -0.1510
     21 N4        -13.6218   60.8741   12.6827 N.2         1 MOL      -0.0636
     22 N5        -14.3210   61.0534   11.6929 N.2         1 MOL      -0.1383
     23 N1        -14.2301   60.0855   10.8857 N.2         1 MOL      -0.2073
     24 H1         -9.6390   56.1321    5.9317 H           1 MOL       0.0680
     25 H2         -8.3255   56.2736    3.3346 H           1 MOL       0.1370
     26 H3         -5.9161   56.3090    2.7365 H           1 MOL       0.2935
     27 H4         -4.9856   56.0000    7.4423 H           1 MOL       0.0630
     28 H5         -6.7756   55.9551    9.0715 H           1 MOL       0.0669
     29 H6        -10.6257   57.2098    7.7161 H           1 MOL       0.2252
     30 H7        -11.5999   58.7684    9.5085 H           1 MOL       0.0543
     31 H8        -11.8449   54.5541    9.5808 H           1 MOL       0.0536
     32 H9        -13.5610   54.6837   11.2838 H           1 MOL       0.0588
     33 H10       -14.2558   56.8295   12.1613 H           1 MOL       0.0535
     34 H11       -12.4018   59.4156   13.2398 H           1 MOL       0.2708
@<TRIPOS>BOND
     1     1     2   2
     2     2     3   1
     3     2    12  am
     4     3     4  ar
     5     3    11  ar
     6     4     5  ar
     7     5     6   2
     8     5     9  ar
     9     6     7   1
    10     7     8   1
    11     8     9   2
    12     9    10  ar
    13    10    11  ar
    14    12    13   1
    15    13    14  ar
    16    13    15  ar
    17    14    18  ar
    18    15    16  ar
    19    16    17  ar
    20    17    18  ar
    21    18    19   1
    22    19    20   1
    23    19    23   2
    24    20    21   1
    25    21    22   2
    26    22    23   1
    27     4    24   1
    28     6    25   1
    29     7    26   1
    30    10    27   1
    31    11    28   1
    32    12    29   1
    33    14    30   1
    34    15    31   1
    35    16    32   1
    36    17    33   1
    37    20    34   1
@<TRIPOS>SUBSTRUCTURE
     1  MOL      2

