@<TRIPOS>MOLECULE
4de1_ligand_004
    34    37
SMALL
GAST_HUCK
****
This file was generated by PARSER (from files_GN.cpp)

@<TRIPOS>ATOM
      1 O14        -5.3058   48.1178   11.2578 O.2         1 MOL      -0.3730
      2 C13        -4.7277   48.8870   12.0291 C.2         1 MOL       0.2323
      3 C15        -5.4463   49.9552   12.6028 C.ar        1 MOL       0.0570
      4 C20        -4.8509   50.8435   13.5448 C.ar        1 MOL      -0.0265
      5 C19        -5.6211   51.8785   14.1076 C.ar        1 MOL       0.0384
      6 C23        -5.3547   52.8671   15.0450 C.2         1 MOL       0.1104
      7 N22        -6.4907   53.5654   15.2067 N.pl3       1 MOL      -0.2442
      8 N21        -7.4407   53.1039   14.4496 N.2         1 MOL      -0.3319
      9 C18        -6.9542   52.0665   13.7550 C.ar        1 MOL      -0.0092
     10 C17        -7.5615   51.2397   12.8051 C.ar        1 MOL      -0.0531
     11 C16        -6.8026   50.1987   12.2303 C.ar        1 MOL      -0.0414
     12 N12        -3.4540   48.6248   12.3498 N.am        1 MOL      -0.2325
     13 C8         -2.6345   47.6294   11.8815 C.ar        1 MOL       0.0706
     14 C7         -2.4708   47.3432   10.4993 C.ar        1 MOL      -0.0238
     15 C9         -1.8729   46.8927   12.8167 C.ar        1 MOL      -0.0372
     16 C10        -1.0273   45.8498   12.3956 C.ar        1 MOL      -0.0702
     17 C11        -0.9145   45.5384   11.0278 C.ar        1 MOL      -0.0591
     18 C6         -1.6243   46.2971   10.0663 C.ar        1 MOL       0.0268
     19 C2         -1.4726   46.0084    8.6955 C.2         1 MOL       0.1822
     20 N3         -1.9940   44.9795    8.0261 N.pl3       1 MOL      -0.1510
     21 N4         -1.6201   45.0881    6.8256 N.2         1 MOL      -0.0636
     22 N5         -0.8758   46.0652    6.6909 N.2         1 MOL      -0.1383
     23 N1         -0.7485   46.6781    7.7893 N.2         1 MOL      -0.2073
     24 H1         -3.8765   50.7557   13.8328 H           1 MOL       0.0680
     25 H2         -4.4716   53.0243   15.5315 H           1 MOL       0.1370
     26 H3         -6.6014   54.3049   15.8275 H           1 MOL       0.2935
     27 H4         -8.5444   51.3857   12.5470 H           1 MOL       0.0630
     28 H5         -7.2791   49.5933   11.5542 H           1 MOL       0.0669
     29 H6         -3.0804   49.1492   13.0847 H           1 MOL       0.2252
     30 H7         -2.9583   47.9065    9.8047 H           1 MOL       0.0543
     31 H8         -1.9413   47.0950   13.8200 H           1 MOL       0.0536
     32 H9         -0.4876   45.3158   13.0857 H           1 MOL       0.0588
     33 H10        -0.2822   44.7847   10.7339 H           1 MOL       0.0535
     34 H11        -2.5931   44.2996    8.3833 H           1 MOL       0.2708
@<TRIPOS>BOND
     1     1     2   2
     2     2     3   1
     3     2    12  am
     4     3     4  ar
     5     3    11  ar
     6     4     5  ar
     7     5     6   2
     8     5     9  ar
     9     6     7   1
    10     7     8   1
    11     8     9   2
    12     9    10  ar
    13    10    11  ar
    14    12    13   1
    15    13    14  ar
    16    13    15  ar
    17    14    18  ar
    18    15    16  ar
    19    16    17  ar
    20    17    18  ar
    21    18    19   1
    22    19    20   1
    23    19    23   2
    24    20    21   1
    25    21    22   2
    26    22    23   1
    27     4    24   1
    28     6    25   1
    29     7    26   1
    30    10    27   1
    31    11    28   1
    32    12    29   1
    33    14    30   1
    34    15    31   1
    35    16    32   1
    36    17    33   1
    37    20    34   1
@<TRIPOS>SUBSTRUCTURE
     1  MOL      2

