@<TRIPOS>MOLECULE
4de1_ligand_052
    34    37
SMALL
GAST_HUCK
****
This file was generated by PARSER (from files_GN.cpp)

@<TRIPOS>ATOM
      1 O14        -7.1415   48.4278    9.9880 O.2         1 MOL      -0.3730
      2 C13        -7.6144   49.0571   10.9367 C.2         1 MOL       0.2323
      3 C15        -8.9812   49.0583   11.0917 C.ar        1 MOL       0.0570
      4 C20        -9.7066   50.2742   11.2116 C.ar        1 MOL      -0.0265
      5 C19       -11.0984   50.2141   11.3976 C.ar        1 MOL       0.0384
      6 C23       -12.0934   51.1713   11.5092 C.2         1 MOL       0.1104
      7 N22       -13.2530   50.5164   11.6805 N.pl3       1 MOL      -0.2442
      8 N21       -13.0703   49.2285   11.6778 N.2         1 MOL      -0.3319
      9 C18       -11.7602   48.9957   11.4972 C.ar        1 MOL      -0.0092
     10 C17       -11.0614   47.7827   11.4017 C.ar        1 MOL      -0.0531
     11 C16        -9.6713   47.8202   11.1865 C.ar        1 MOL      -0.0414
     12 N12        -6.8568   49.7101   11.8024 N.am        1 MOL      -0.2325
     13 C8         -5.4962   49.7055   11.8693 C.ar        1 MOL       0.0706
     14 C7         -4.8355   50.9414   12.0415 C.ar        1 MOL      -0.0238
     15 C9         -4.7371   48.5115   11.8707 C.ar        1 MOL      -0.0372
     16 C10        -3.3475   48.5517   12.0604 C.ar        1 MOL      -0.0702
     17 C11        -2.6983   49.7785   12.2645 C.ar        1 MOL      -0.0591
     18 C6         -3.4382   50.9864   12.2341 C.ar        1 MOL       0.0268
     19 C2         -2.7868   52.2234   12.3863 C.2         1 MOL       0.1822
     20 N3         -2.8238   53.2709   11.5687 N.pl3       1 MOL      -0.1510
     21 N4         -2.0700   54.1523   12.0460 N.2         1 MOL      -0.0636
     22 N5         -1.5698   53.7535   13.0953 N.2         1 MOL      -0.1383
     23 N1         -1.9693   52.5918   13.3797 N.2         1 MOL      -0.2073
     24 H1         -9.2343   51.1873   11.1470 H           1 MOL       0.0680
     25 H2        -11.9754   52.1821   11.4548 H           1 MOL       0.1370
     26 H3        -14.1171   50.9473   11.7801 H           1 MOL       0.2935
     27 H4        -11.5586   46.8949   11.4890 H           1 MOL       0.0630
     28 H5         -9.1507   46.9392   11.1332 H           1 MOL       0.0669
     29 H6         -7.3249   50.2915   12.4363 H           1 MOL       0.2252
     30 H7         -5.3810   51.8115   12.0570 H           1 MOL       0.0543
     31 H8         -5.2019   47.6028   11.7842 H           1 MOL       0.0536
     32 H9         -2.8117   47.6836   12.0627 H           1 MOL       0.0588
     33 H10        -1.6791   49.8017   12.3801 H           1 MOL       0.0535
     34 H11        -3.2907   53.3399   10.7182 H           1 MOL       0.2708
@<TRIPOS>BOND
     1     1     2   2
     2     2     3   1
     3     2    12  am
     4     3     4  ar
     5     3    11  ar
     6     4     5  ar
     7     5     6   2
     8     5     9  ar
     9     6     7   1
    10     7     8   1
    11     8     9   2
    12     9    10  ar
    13    10    11  ar
    14    12    13   1
    15    13    14  ar
    16    13    15  ar
    17    14    18  ar
    18    15    16  ar
    19    16    17  ar
    20    17    18  ar
    21    18    19   1
    22    19    20   1
    23    19    23   2
    24    20    21   1
    25    21    22   2
    26    22    23   1
    27     4    24   1
    28     6    25   1
    29     7    26   1
    30    10    27   1
    31    11    28   1
    32    12    29   1
    33    14    30   1
    34    15    31   1
    35    16    32   1
    36    17    33   1
    37    20    34   1
@<TRIPOS>SUBSTRUCTURE
     1  MOL      2

