@<TRIPOS>MOLECULE
4de1_ligand_033
    34    37
SMALL
GAST_HUCK
****
This file was generated by PARSER (from files_GN.cpp)

@<TRIPOS>ATOM
      1 O14        -8.0395   56.5372   10.2079 O.2         1 MOL      -0.3730
      2 C13        -7.4253   55.4836   10.3206 C.2         1 MOL       0.2323
      3 C15        -7.0090   55.0500   11.5874 C.ar        1 MOL       0.0570
      4 C20        -6.6191   53.7039   11.8208 C.ar        1 MOL      -0.0265
      5 C19        -6.1771   53.3161   13.0984 C.ar        1 MOL       0.0384
      6 C23        -5.7593   52.1106   13.6358 C.2         1 MOL       0.1104
      7 N22        -5.4670   52.3352   14.9260 N.pl3       1 MOL      -0.2442
      8 N21        -5.6726   53.5767   15.2440 N.2         1 MOL      -0.3319
      9 C18        -6.1054   54.2233   14.1463 C.ar        1 MOL      -0.0092
     10 C17        -6.4733   55.5623   13.9585 C.ar        1 MOL      -0.0531
     11 C16        -6.9327   55.9623   12.6846 C.ar        1 MOL      -0.0414
     12 N12        -7.0996   54.8076    9.2207 N.am        1 MOL      -0.2325
     13 C8         -7.3647   55.1810    7.9406 C.ar        1 MOL       0.0706
     14 C7         -8.6809   55.1455    7.4303 C.ar        1 MOL      -0.0238
     15 C9         -6.2934   55.4914    7.0760 C.ar        1 MOL      -0.0372
     16 C10        -6.5380   55.8185    5.7324 C.ar        1 MOL      -0.0702
     17 C11        -7.8531   55.7915    5.2294 C.ar        1 MOL      -0.0591
     18 C6         -8.9291   55.4340    6.0709 C.ar        1 MOL       0.0268
     19 C2        -10.2277   55.3494    5.5497 C.2         1 MOL       0.1822
     20 N3        -11.1004   56.3372    5.3502 N.pl3       1 MOL      -0.1510
     21 N4        -12.1204   55.8388    4.8166 N.2         1 MOL      -0.0636
     22 N5        -11.9644   54.6298    4.6599 N.2         1 MOL      -0.1383
     23 N1        -10.8321   54.2572    5.0814 N.2         1 MOL      -0.2073
     24 H1         -6.6543   53.0002   11.0794 H           1 MOL       0.0680
     25 H2         -5.7052   51.2139   13.1510 H           1 MOL       0.1370
     26 H3         -5.1505   51.6641   15.5559 H           1 MOL       0.2935
     27 H4         -6.4333   56.2248   14.7350 H           1 MOL       0.0630
     28 H5         -7.1738   56.9443   12.5548 H           1 MOL       0.0669
     29 H6         -6.4952   54.0548    9.3270 H           1 MOL       0.2252
     30 H7         -9.4567   54.8853    8.0524 H           1 MOL       0.0543
     31 H8         -5.3276   55.5199    7.4307 H           1 MOL       0.0536
     32 H9         -5.7600   56.0616    5.1104 H           1 MOL       0.0588
     33 H10        -8.0116   55.9861    4.2330 H           1 MOL       0.0535
     34 H11       -10.9702   57.2704    5.5838 H           1 MOL       0.2708
@<TRIPOS>BOND
     1     1     2   2
     2     2     3   1
     3     2    12  am
     4     3     4  ar
     5     3    11  ar
     6     4     5  ar
     7     5     6   2
     8     5     9  ar
     9     6     7   1
    10     7     8   1
    11     8     9   2
    12     9    10  ar
    13    10    11  ar
    14    12    13   1
    15    13    14  ar
    16    13    15  ar
    17    14    18  ar
    18    15    16  ar
    19    16    17  ar
    20    17    18  ar
    21    18    19   1
    22    19    20   1
    23    19    23   2
    24    20    21   1
    25    21    22   2
    26    22    23   1
    27     4    24   1
    28     6    25   1
    29     7    26   1
    30    10    27   1
    31    11    28   1
    32    12    29   1
    33    14    30   1
    34    15    31   1
    35    16    32   1
    36    17    33   1
    37    20    34   1
@<TRIPOS>SUBSTRUCTURE
     1  MOL      2

