@<TRIPOS>MOLECULE
4de1_ligand_006
    34    37
SMALL
GAST_HUCK
****
This file was generated by PARSER (from files_GN.cpp)

@<TRIPOS>ATOM
      1 O14        -1.5753   48.9894    9.8545 O.2         1 MOL      -0.3730
      2 C13        -0.4425   49.4798    9.9158 C.2         1 MOL       0.2323
      3 C15        -0.2171   50.7750    9.4544 C.ar        1 MOL       0.0570
      4 C20        -1.1412   51.4044    8.5707 C.ar        1 MOL      -0.0265
      5 C19        -0.9097   52.7228    8.1505 C.ar        1 MOL       0.0384
      6 C23        -1.6022   53.5914    7.3266 C.2         1 MOL       0.1104
      7 N22        -0.9024   54.7416    7.2999 N.pl3       1 MOL      -0.2442
      8 N21         0.1695   54.6560    8.0318 N.2         1 MOL      -0.3319
      9 C18         0.2097   53.4326    8.5776 C.ar        1 MOL      -0.0092
     10 C17         1.1415   52.8434    9.4435 C.ar        1 MOL      -0.0531
     11 C16         0.9200   51.5229    9.8779 C.ar        1 MOL      -0.0414
     12 N12         0.5606   48.7309   10.3630 N.am        1 MOL      -0.2325
     13 C8          0.5211   47.5060   10.9651 C.ar        1 MOL       0.0706
     14 C7         -0.4038   47.1909   11.9849 C.ar        1 MOL      -0.0238
     15 C9          1.5247   46.5707   10.6415 C.ar        1 MOL      -0.0372
     16 C10         1.5867   45.3345   11.3058 C.ar        1 MOL      -0.0702
     17 C11         0.6798   45.0429   12.3385 C.ar        1 MOL      -0.0591
     18 C6         -0.3203   45.9770   12.7007 C.ar        1 MOL       0.0268
     19 C2         -1.1824   45.7301   13.7868 C.2         1 MOL       0.1822
     20 N3         -0.9180   45.0500   14.9060 N.pl3       1 MOL      -0.1510
     21 N4         -1.9151   45.1201   15.6618 N.2         1 MOL      -0.0636
     22 N5         -2.8029   45.7709   15.1021 N.2         1 MOL      -0.1383
     23 N1         -2.4223   46.1940   13.9785 N.2         1 MOL      -0.2073
     24 H1         -1.9762   50.9150    8.2329 H           1 MOL       0.0680
     25 H2         -2.4770   53.4079    6.8374 H           1 MOL       0.1370
     26 H3         -1.1714   55.5311    6.8134 H           1 MOL       0.2935
     27 H4          1.9574   53.3709    9.7623 H           1 MOL       0.0630
     28 H5          1.5904   51.1251   10.5410 H           1 MOL       0.0669
     29 H6          1.4482   49.1091   10.2555 H           1 MOL       0.2252
     30 H7         -1.0858   47.8980   12.2644 H           1 MOL       0.0543
     31 H8          2.2200   46.7858    9.9206 H           1 MOL       0.0536
     32 H9          2.3138   44.6588   11.0569 H           1 MOL       0.0588
     33 H10         0.7516   44.1387   12.8185 H           1 MOL       0.0535
     34 H11        -0.0520   44.6851   15.1528 H           1 MOL       0.2708
@<TRIPOS>BOND
     1     1     2   2
     2     2     3   1
     3     2    12  am
     4     3     4  ar
     5     3    11  ar
     6     4     5  ar
     7     5     6   2
     8     5     9  ar
     9     6     7   1
    10     7     8   1
    11     8     9   2
    12     9    10  ar
    13    10    11  ar
    14    12    13   1
    15    13    14  ar
    16    13    15  ar
    17    14    18  ar
    18    15    16  ar
    19    16    17  ar
    20    17    18  ar
    21    18    19   1
    22    19    20   1
    23    19    23   2
    24    20    21   1
    25    21    22   2
    26    22    23   1
    27     4    24   1
    28     6    25   1
    29     7    26   1
    30    10    27   1
    31    11    28   1
    32    12    29   1
    33    14    30   1
    34    15    31   1
    35    16    32   1
    36    17    33   1
    37    20    34   1
@<TRIPOS>SUBSTRUCTURE
     1  MOL      2

