@<TRIPOS>MOLECULE
4de1_ligand_089
    34    37
SMALL
GAST_HUCK
****
This file was generated by PARSER (from files_GN.cpp)

@<TRIPOS>ATOM
      1 O14       -12.9223   55.4791    8.6486 O.2         1 MOL      -0.3730
      2 C13       -12.3780   56.4686    8.1547 C.2         1 MOL       0.2323
      3 C15       -11.1162   56.3035    7.6356 C.ar        1 MOL       0.0570
      4 C20        -9.9919   56.3048    8.5004 C.ar        1 MOL      -0.0265
      5 C19        -8.7138   56.1532    7.9364 C.ar        1 MOL       0.0384
      6 C23        -7.4374   56.1621    8.4893 C.2         1 MOL       0.1104
      7 N22        -6.5841   56.0012    7.4611 N.pl3       1 MOL      -0.2442
      8 N21        -7.2095   55.8906    6.3337 N.2         1 MOL      -0.3319
      9 C18        -8.5316   55.9844    6.5710 C.ar        1 MOL      -0.0092
     10 C17        -9.6343   55.9504    5.6990 C.ar        1 MOL      -0.0531
     11 C16       -10.9239   56.1140    6.2389 C.ar        1 MOL      -0.0414
     12 N12       -12.9454   57.6647    8.0874 N.am        1 MOL      -0.2325
     13 C8        -14.1514   58.0786    8.6030 C.ar        1 MOL       0.0706
     14 C7        -14.7702   59.1998    7.9931 C.ar        1 MOL      -0.0238
     15 C9        -14.7496   57.5231    9.7641 C.ar        1 MOL      -0.0372
     16 C10       -15.9567   58.0518   10.2726 C.ar        1 MOL      -0.0702
     17 C11       -16.5688   59.1568    9.6538 C.ar        1 MOL      -0.0591
     18 C6        -15.9768   59.7454    8.5104 C.ar        1 MOL       0.0268
     19 C2        -16.5901   60.8301    7.8565 C.2         1 MOL       0.1822
     20 N3        -17.3898   61.7633    8.3902 N.pl3       1 MOL      -0.1510
     21 N4        -17.7094   62.5729    7.4914 N.2         1 MOL      -0.0636
     22 N5        -17.2100   62.2184    6.4064 N.2         1 MOL      -0.1383
     23 N1        -16.5100   61.1800    6.5652 N.2         1 MOL      -0.2073
     24 H1        -10.0862   56.4307    9.5119 H           1 MOL       0.0680
     25 H2         -7.1980   56.2876    9.4696 H           1 MOL       0.1370
     26 H3         -5.6165   55.9808    7.5592 H           1 MOL       0.2935
     27 H4         -9.4976   55.8086    4.6959 H           1 MOL       0.0630
     28 H5        -11.7306   56.0849    5.6122 H           1 MOL       0.0669
     29 H6        -12.4438   58.3419    7.5976 H           1 MOL       0.2252
     30 H7        -14.3235   59.6266    7.1769 H           1 MOL       0.0543
     31 H8        -14.3200   56.7367   10.2724 H           1 MOL       0.0536
     32 H9        -16.3832   57.6323   11.1061 H           1 MOL       0.0588
     33 H10       -17.4338   59.5288   10.0466 H           1 MOL       0.0535
     34 H11       -17.6499   61.8284    9.3279 H           1 MOL       0.2708
@<TRIPOS>BOND
     1     1     2   2
     2     2     3   1
     3     2    12  am
     4     3     4  ar
     5     3    11  ar
     6     4     5  ar
     7     5     6   2
     8     5     9  ar
     9     6     7   1
    10     7     8   1
    11     8     9   2
    12     9    10  ar
    13    10    11  ar
    14    12    13   1
    15    13    14  ar
    16    13    15  ar
    17    14    18  ar
    18    15    16  ar
    19    16    17  ar
    20    17    18  ar
    21    18    19   1
    22    19    20   1
    23    19    23   2
    24    20    21   1
    25    21    22   2
    26    22    23   1
    27     4    24   1
    28     6    25   1
    29     7    26   1
    30    10    27   1
    31    11    28   1
    32    12    29   1
    33    14    30   1
    34    15    31   1
    35    16    32   1
    36    17    33   1
    37    20    34   1
@<TRIPOS>SUBSTRUCTURE
     1  MOL      2

