@<TRIPOS>MOLECULE
4de1_ligand_078
    34    37
SMALL
GAST_HUCK
****
This file was generated by PARSER (from files_GN.cpp)

@<TRIPOS>ATOM
      1 O14        -2.5876   51.1874   11.7573 O.2         1 MOL      -0.3730
      2 C13        -3.7767   51.1090   11.4417 C.2         1 MOL       0.2323
      3 C15        -4.5750   52.2596   11.4474 C.ar        1 MOL       0.0570
      4 C20        -5.8097   52.3114   10.7287 C.ar        1 MOL      -0.0265
      5 C19        -6.5795   53.4840   10.7493 C.ar        1 MOL       0.0384
      6 C23        -7.7793   53.8441   10.1576 C.2         1 MOL       0.1104
      7 N22        -8.0238   55.1146   10.5206 N.pl3       1 MOL      -0.2442
      8 N21        -7.0875   55.5700   11.2974 N.2         1 MOL      -0.3319
      9 C18        -6.1731   54.6083   11.4708 C.ar        1 MOL      -0.0092
     10 C17        -4.9732   54.5900   12.1925 C.ar        1 MOL      -0.0531
     11 C16        -4.1757   53.4267   12.1645 C.ar        1 MOL      -0.0414
     12 N12        -4.2511   49.9203   11.0547 N.am        1 MOL      -0.2325
     13 C8         -3.5719   48.7352   10.9948 C.ar        1 MOL       0.0706
     14 C7         -3.1458   48.2396    9.7439 C.ar        1 MOL      -0.0238
     15 C9         -3.3440   47.9824   12.1593 C.ar        1 MOL      -0.0372
     16 C10        -2.6935   46.7412   12.0819 C.ar        1 MOL      -0.0702
     17 C11        -2.2618   46.2462   10.8381 C.ar        1 MOL      -0.0591
     18 C6         -2.4837   46.9956    9.6652 C.ar        1 MOL       0.0268
     19 C2         -2.0810   46.5252    8.4034 C.2         1 MOL       0.1822
     20 N3         -2.7732   45.7397    7.5813 N.pl3       1 MOL      -0.1510
     21 N4         -2.1221   45.6384    6.5068 N.2         1 MOL      -0.0636
     22 N5         -1.0862   46.2945    6.5894 N.2         1 MOL      -0.1383
     23 N1         -0.9912   46.8623    7.7137 N.2         1 MOL      -0.2073
     24 H1         -6.1453   51.5179   10.1791 H           1 MOL       0.0680
     25 H2         -8.3611   53.2622    9.5597 H           1 MOL       0.1370
     26 H3         -8.7986   55.6265   10.2319 H           1 MOL       0.2935
     27 H4         -4.6865   55.4064   12.7258 H           1 MOL       0.0630
     28 H5         -3.2998   53.4307   12.6888 H           1 MOL       0.0669
     29 H6         -5.2000   49.8853   10.8002 H           1 MOL       0.2252
     30 H7         -3.3242   48.7957    8.9033 H           1 MOL       0.0543
     31 H8         -3.6683   48.3259   13.0723 H           1 MOL       0.0536
     32 H9         -2.5450   46.1884   12.9204 H           1 MOL       0.0588
     33 H10        -1.8024   45.3343   10.7821 H           1 MOL       0.0535
     34 H11        -3.6354   45.3301    7.7676 H           1 MOL       0.2708
@<TRIPOS>BOND
     1     1     2   2
     2     2     3   1
     3     2    12  am
     4     3     4  ar
     5     3    11  ar
     6     4     5  ar
     7     5     6   2
     8     5     9  ar
     9     6     7   1
    10     7     8   1
    11     8     9   2
    12     9    10  ar
    13    10    11  ar
    14    12    13   1
    15    13    14  ar
    16    13    15  ar
    17    14    18  ar
    18    15    16  ar
    19    16    17  ar
    20    17    18  ar
    21    18    19   1
    22    19    20   1
    23    19    23   2
    24    20    21   1
    25    21    22   2
    26    22    23   1
    27     4    24   1
    28     6    25   1
    29     7    26   1
    30    10    27   1
    31    11    28   1
    32    12    29   1
    33    14    30   1
    34    15    31   1
    35    16    32   1
    36    17    33   1
    37    20    34   1
@<TRIPOS>SUBSTRUCTURE
     1  MOL      2

