@<TRIPOS>MOLECULE
4de1_ligand_046
    34    37
SMALL
GAST_HUCK
****
This file was generated by PARSER (from files_GN.cpp)

@<TRIPOS>ATOM
      1 O14        -1.4088   48.6243    9.5180 O.2         1 MOL      -0.3730
      2 C13        -0.3404   48.2707    9.9965 C.2         1 MOL       0.2323
      3 C15         0.0194   46.9155    9.9174 C.ar        1 MOL       0.0570
      4 C20        -0.8581   45.9667    9.3074 C.ar        1 MOL      -0.0265
      5 C19        -0.4888   44.6104    9.2584 C.ar        1 MOL       0.0384
      6 C23        -1.1101   43.4874    8.7511 C.2         1 MOL       0.1104
      7 N22        -0.2791   42.4592    8.9677 N.pl3       1 MOL      -0.2442
      8 N21         0.8013   42.8354    9.5953 N.2         1 MOL      -0.3319
      9 C18         0.7107   44.1659    9.7948 C.ar        1 MOL      -0.0092
     10 C17         1.5976   45.0702   10.3996 C.ar        1 MOL      -0.0531
     11 C16         1.2550   46.4397   10.4376 C.ar        1 MOL      -0.0414
     12 N12         0.4300   49.1861   10.5909 N.am        1 MOL      -0.2325
     13 C8          0.1894   50.5172   10.7672 C.ar        1 MOL       0.0706
     14 C7          1.0862   51.4468   10.1872 C.ar        1 MOL      -0.0238
     15 C9         -0.9365   50.9914   11.4722 C.ar        1 MOL      -0.0372
     16 C10        -1.1942   52.3643   11.5400 C.ar        1 MOL      -0.0702
     17 C11        -0.3402   53.2780   10.9033 C.ar        1 MOL      -0.0591
     18 C6          0.8160   52.8349   10.2268 C.ar        1 MOL       0.0268
     19 C2          1.6417   53.7564    9.5671 C.2         1 MOL       0.1822
     20 N3          1.2808   54.6044    8.5848 N.pl3       1 MOL      -0.1510
     21 N4          2.3103   55.2224    8.2085 N.2         1 MOL      -0.0636
     22 N5          3.2958   54.8235    8.8496 N.2         1 MOL      -0.1383
     23 N1          2.9590   53.9130    9.6912 N.2         1 MOL      -0.2073
     24 H1         -1.7549   46.2409    8.9055 H           1 MOL       0.0680
     25 H2         -2.0172   43.4512    8.2769 H           1 MOL       0.1370
     26 H3         -0.4572   41.5421    8.6938 H           1 MOL       0.2935
     27 H4          2.4749   44.7439   10.8108 H           1 MOL       0.0630
     28 H5          1.9228   47.0746   10.8718 H           1 MOL       0.0669
     29 H6          1.3018   48.8802   10.8751 H           1 MOL       0.2252
     30 H7          1.9110   51.1074    9.6751 H           1 MOL       0.0543
     31 H8         -1.5659   50.3342   11.9229 H           1 MOL       0.0536
     32 H9         -2.0329   52.6905   12.0390 H           1 MOL       0.0588
     33 H10        -0.5836   54.2735   10.9359 H           1 MOL       0.0535
     34 H11         0.3901   54.7139    8.2217 H           1 MOL       0.2708
@<TRIPOS>BOND
     1     1     2   2
     2     2     3   1
     3     2    12  am
     4     3     4  ar
     5     3    11  ar
     6     4     5  ar
     7     5     6   2
     8     5     9  ar
     9     6     7   1
    10     7     8   1
    11     8     9   2
    12     9    10  ar
    13    10    11  ar
    14    12    13   1
    15    13    14  ar
    16    13    15  ar
    17    14    18  ar
    18    15    16  ar
    19    16    17  ar
    20    17    18  ar
    21    18    19   1
    22    19    20   1
    23    19    23   2
    24    20    21   1
    25    21    22   2
    26    22    23   1
    27     4    24   1
    28     6    25   1
    29     7    26   1
    30    10    27   1
    31    11    28   1
    32    12    29   1
    33    14    30   1
    34    15    31   1
    35    16    32   1
    36    17    33   1
    37    20    34   1
@<TRIPOS>SUBSTRUCTURE
     1  MOL      2

