@<TRIPOS>MOLECULE
4de1_ligand_005
    34    37
SMALL
GAST_HUCK
****
This file was generated by PARSER (from files_GN.cpp)

@<TRIPOS>ATOM
      1 O14        -9.7299   54.4032   11.0620 O.2         1 MOL      -0.3730
      2 C13        -9.0313   55.1823   11.7001 C.2         1 MOL       0.2323
      3 C15        -7.8789   54.7020   12.2830 C.ar        1 MOL       0.0570
      4 C20        -7.9430   53.8640   13.4257 C.ar        1 MOL      -0.0265
      5 C19        -6.7424   53.4346   14.0149 C.ar        1 MOL       0.0384
      6 C23        -6.4524   52.6594   15.1233 C.2         1 MOL       0.1104
      7 N22        -5.1117   52.5945   15.2089 N.pl3       1 MOL      -0.2442
      8 N21        -4.5417   53.2565   14.2501 N.2         1 MOL      -0.3319
      9 C18        -5.5061   53.7937   13.4859 C.ar        1 MOL      -0.0092
     10 C17        -5.4239   54.5855   12.3277 C.ar        1 MOL      -0.0531
     11 C16        -6.6172   55.0485   11.7378 C.ar        1 MOL      -0.0414
     12 N12        -9.4125   56.4259   11.9632 N.am        1 MOL      -0.2325
     13 C8        -10.5426   57.0199   11.4943 C.ar        1 MOL       0.0706
     14 C7        -11.5387   57.4139   12.4099 C.ar        1 MOL      -0.0238
     15 C9        -10.7294   57.2831   10.1146 C.ar        1 MOL      -0.0372
     16 C10       -11.9175   57.8822    9.6573 C.ar        1 MOL      -0.0702
     17 C11       -12.9363   58.2095   10.5724 C.ar        1 MOL      -0.0591
     18 C6        -12.7489   57.9848   11.9507 C.ar        1 MOL       0.0268
     19 C2        -13.7824   58.2830   12.8442 C.2         1 MOL       0.1822
     20 N3        -13.8736   59.3109   13.6832 N.pl3       1 MOL      -0.1510
     21 N4        -14.9876   59.2310   14.2559 N.2         1 MOL      -0.0636
     22 N5        -15.6000   58.2437   13.8512 N.2         1 MOL      -0.1383
     23 N1        -14.9300   57.6145   12.9849 N.2         1 MOL      -0.2073
     24 H1         -8.8386   53.5854   13.8297 H           1 MOL       0.0680
     25 H2         -7.1149   52.2182   15.7651 H           1 MOL       0.1370
     26 H3         -4.6388   52.1146   15.9109 H           1 MOL       0.2935
     27 H4         -4.5138   54.8240   11.9269 H           1 MOL       0.0630
     28 H5         -6.5597   55.6233   10.8918 H           1 MOL       0.0669
     29 H6         -8.9101   56.9077   12.6456 H           1 MOL       0.2252
     30 H7        -11.4065   57.2319   13.4082 H           1 MOL       0.0543
     31 H8         -9.9914   57.0564    9.4405 H           1 MOL       0.0536
     32 H9        -12.0506   58.0673    8.6608 H           1 MOL       0.0588
     33 H10       -13.8024   58.6365   10.2242 H           1 MOL       0.0535
     34 H11       -13.2223   60.0236   13.7902 H           1 MOL       0.2708
@<TRIPOS>BOND
     1     1     2   2
     2     2     3   1
     3     2    12  am
     4     3     4  ar
     5     3    11  ar
     6     4     5  ar
     7     5     6   2
     8     5     9  ar
     9     6     7   1
    10     7     8   1
    11     8     9   2
    12     9    10  ar
    13    10    11  ar
    14    12    13   1
    15    13    14  ar
    16    13    15  ar
    17    14    18  ar
    18    15    16  ar
    19    16    17  ar
    20    17    18  ar
    21    18    19   1
    22    19    20   1
    23    19    23   2
    24    20    21   1
    25    21    22   2
    26    22    23   1
    27     4    24   1
    28     6    25   1
    29     7    26   1
    30    10    27   1
    31    11    28   1
    32    12    29   1
    33    14    30   1
    34    15    31   1
    35    16    32   1
    36    17    33   1
    37    20    34   1
@<TRIPOS>SUBSTRUCTURE
     1  MOL      2

