@<TRIPOS>MOLECULE
4de1_ligand_090
    34    37
SMALL
GAST_HUCK
****
This file was generated by PARSER (from files_GN.cpp)

@<TRIPOS>ATOM
      1 O14        -9.9301   57.8723    7.7517 O.2         1 MOL      -0.3730
      2 C13        -9.2783   56.8499    7.5628 C.2         1 MOL       0.2323
      3 C15        -8.9425   56.4715    6.2667 C.ar        1 MOL       0.0570
      4 C20        -9.7959   56.7958    5.1701 C.ar        1 MOL      -0.0265
      5 C19        -9.4460   56.3801    3.8824 C.ar        1 MOL       0.0384
      6 C23       -10.0616   56.5110    2.6487 C.2         1 MOL       0.1104
      7 N22        -9.2544   55.9038    1.7588 N.pl3       1 MOL      -0.2442
      8 N21        -8.1981   55.3993    2.3276 N.2         1 MOL      -0.3319
      9 C18        -8.2676   55.6771    3.6391 C.ar        1 MOL      -0.0092
     10 C17        -7.3801   55.3695    4.6903 C.ar        1 MOL      -0.0531
     11 C16        -7.7306   55.7621    5.9900 C.ar        1 MOL      -0.0414
     12 N12        -8.8829   56.1073    8.6009 N.am        1 MOL      -0.2325
     13 C8         -9.2064   56.2699    9.9174 C.ar        1 MOL       0.0706
     14 C7         -8.1862   56.1047   10.8751 C.ar        1 MOL      -0.0238
     15 C9        -10.5396   56.4872   10.3538 C.ar        1 MOL      -0.0372
     16 C10       -10.8353   56.5330   11.7252 C.ar        1 MOL      -0.0702
     17 C11        -9.8097   56.3677   12.6754 C.ar        1 MOL      -0.0591
     18 C6         -8.4784   56.1466   12.2516 C.ar        1 MOL       0.0268
     19 C2         -7.4451   55.9923   13.2032 C.2         1 MOL       0.1822
     20 N3         -6.1738   56.3562   13.0753 N.pl3       1 MOL      -0.1510
     21 N4         -5.5640   56.0807   14.1345 N.2         1 MOL      -0.0636
     22 N5         -6.3481   55.5486   14.9213 N.2         1 MOL      -0.1383
     23 N1         -7.5101   55.4707   14.4332 N.2         1 MOL      -0.2073
     24 H1        -10.6868   57.2808    5.2931 H           1 MOL       0.0680
     25 H2        -10.9458   56.9762    2.4318 H           1 MOL       0.1370
     26 H3         -9.4384   55.8462    0.8057 H           1 MOL       0.2935
     27 H4         -6.5219   54.8486    4.5170 H           1 MOL       0.0630
     28 H5         -7.0852   55.5299    6.7412 H           1 MOL       0.0669
     29 H6         -8.2735   55.3768    8.3932 H           1 MOL       0.2252
     30 H7         -7.2240   55.9324   10.5572 H           1 MOL       0.0543
     31 H8        -11.3090   56.5864    9.6810 H           1 MOL       0.0536
     32 H9        -11.7988   56.6783   12.0299 H           1 MOL       0.0588
     33 H10       -10.0552   56.4039   13.6673 H           1 MOL       0.0535
     34 H11        -5.7901   56.8131   12.3108 H           1 MOL       0.2708
@<TRIPOS>BOND
     1     1     2   2
     2     2     3   1
     3     2    12  am
     4     3     4  ar
     5     3    11  ar
     6     4     5  ar
     7     5     6   2
     8     5     9  ar
     9     6     7   1
    10     7     8   1
    11     8     9   2
    12     9    10  ar
    13    10    11  ar
    14    12    13   1
    15    13    14  ar
    16    13    15  ar
    17    14    18  ar
    18    15    16  ar
    19    16    17  ar
    20    17    18  ar
    21    18    19   1
    22    19    20   1
    23    19    23   2
    24    20    21   1
    25    21    22   2
    26    22    23   1
    27     4    24   1
    28     6    25   1
    29     7    26   1
    30    10    27   1
    31    11    28   1
    32    12    29   1
    33    14    30   1
    34    15    31   1
    35    16    32   1
    36    17    33   1
    37    20    34   1
@<TRIPOS>SUBSTRUCTURE
     1  MOL      2

