@<TRIPOS>MOLECULE
4de1_ligand_023
    34    37
SMALL
GAST_HUCK
****
This file was generated by PARSER (from files_GN.cpp)

@<TRIPOS>ATOM
      1 O14        -7.6593   55.6893    8.4604 O.2         1 MOL      -0.3730
      2 C13        -7.4969   54.5410    8.0594 C.2         1 MOL       0.2323
      3 C15        -7.0283   54.3466    6.7596 C.ar        1 MOL       0.0570
      4 C20        -7.3832   53.1959    6.0057 C.ar        1 MOL      -0.0265
      5 C19        -6.8875   53.0551    4.6987 C.ar        1 MOL       0.0384
      6 C23        -7.0713   52.0967    3.7204 C.2         1 MOL       0.1104
      7 N22        -6.3542   52.4959    2.6541 N.pl3       1 MOL      -0.2442
      8 N21        -5.7457   53.6178    2.8910 N.2         1 MOL      -0.3319
      9 C18        -6.0463   54.0043    4.1385 C.ar        1 MOL      -0.0092
     10 C17        -5.6601   55.1415    4.8518 C.ar        1 MOL      -0.0531
     11 C16        -6.1584   55.3081    6.1625 C.ar        1 MOL      -0.0414
     12 N12        -7.7706   53.5093    8.8519 N.am        1 MOL      -0.2325
     13 C8         -8.0827   53.5366   10.1798 C.ar        1 MOL       0.0706
     14 C7         -7.4011   54.3659   11.0981 C.ar        1 MOL      -0.0238
     15 C9         -9.0770   52.6608   10.6601 C.ar        1 MOL      -0.0372
     16 C10        -9.4288   52.6595   12.0225 C.ar        1 MOL      -0.0702
     17 C11        -8.7622   53.5082   12.9227 C.ar        1 MOL      -0.0591
     18 C6         -7.7344   54.3689   12.4718 C.ar        1 MOL       0.0268
     19 C2         -7.0139   55.1898   13.3774 C.2         1 MOL       0.1822
     20 N3         -5.9883   56.0039   13.1173 N.pl3       1 MOL      -0.1510
     21 N4         -5.5933   56.5040   14.1963 N.2         1 MOL      -0.0636
     22 N5         -6.3003   56.1110   15.1153 N.2         1 MOL      -0.1383
     23 N1         -7.1890   55.3105   14.6963 N.2         1 MOL      -0.2073
     24 H1         -8.0123   52.4812    6.3745 H           1 MOL       0.0680
     25 H2         -7.6478   51.2540    3.7866 H           1 MOL       0.1370
     26 H3         -6.3013   52.0278    1.8071 H           1 MOL       0.2935
     27 H4         -5.0429   55.8404    4.4362 H           1 MOL       0.0630
     28 H5         -5.8641   56.1429    6.6853 H           1 MOL       0.0669
     29 H6         -7.7661   52.6314    8.4387 H           1 MOL       0.2252
     30 H7         -6.6432   54.9593   10.7596 H           1 MOL       0.0543
     31 H8         -9.5614   52.0220   10.0165 H           1 MOL       0.0536
     32 H9        -10.1569   52.0229   12.3595 H           1 MOL       0.0588
     33 H10        -9.0179   53.4688   13.9075 H           1 MOL       0.0535
     34 H11        -5.6140   56.1906   12.2459 H           1 MOL       0.2708
@<TRIPOS>BOND
     1     1     2   2
     2     2     3   1
     3     2    12  am
     4     3     4  ar
     5     3    11  ar
     6     4     5  ar
     7     5     6   2
     8     5     9  ar
     9     6     7   1
    10     7     8   1
    11     8     9   2
    12     9    10  ar
    13    10    11  ar
    14    12    13   1
    15    13    14  ar
    16    13    15  ar
    17    14    18  ar
    18    15    16  ar
    19    16    17  ar
    20    17    18  ar
    21    18    19   1
    22    19    20   1
    23    19    23   2
    24    20    21   1
    25    21    22   2
    26    22    23   1
    27     4    24   1
    28     6    25   1
    29     7    26   1
    30    10    27   1
    31    11    28   1
    32    12    29   1
    33    14    30   1
    34    15    31   1
    35    16    32   1
    36    17    33   1
    37    20    34   1
@<TRIPOS>SUBSTRUCTURE
     1  MOL      2

