@<TRIPOS>MOLECULE
4de1_ligand_077
    34    37
SMALL
GAST_HUCK
****
This file was generated by PARSER (from files_GN.cpp)

@<TRIPOS>ATOM
      1 O14       -10.8910   56.0835   11.2236 O.2         1 MOL      -0.3730
      2 C13       -10.0160   56.6677   10.5949 C.2         1 MOL       0.2323
      3 C15        -9.0275   55.9096    9.9539 C.ar        1 MOL       0.0570
      4 C20        -8.7620   54.5682   10.3603 C.ar        1 MOL      -0.0265
      5 C19        -7.7401   53.8372    9.7337 C.ar        1 MOL       0.0384
      6 C23        -7.2392   52.5588    9.9222 C.2         1 MOL       0.1104
      7 N22        -6.2365   52.4099    9.0382 N.pl3       1 MOL      -0.2442
      8 N21        -6.0743   53.4793    8.3156 N.2         1 MOL      -0.3319
      9 C18        -6.9824   54.3869    8.7071 C.ar        1 MOL      -0.0092
     10 C17        -7.2330   55.6918    8.2546 C.ar        1 MOL      -0.0531
     11 C16        -8.2617   56.4352    8.8704 C.ar        1 MOL      -0.0414
     12 N12       -10.0457   58.0010   10.5024 N.am        1 MOL      -0.2325
     13 C8        -11.0058   58.8635   10.9634 C.ar        1 MOL       0.0706
     14 C7        -11.3697   59.9471   10.1316 C.ar        1 MOL      -0.0238
     15 C9        -11.6785   58.7082   12.1995 C.ar        1 MOL      -0.0372
     16 C10       -12.7094   59.5862   12.5684 C.ar        1 MOL      -0.0702
     17 C11       -13.1073   60.6154   11.6996 C.ar        1 MOL      -0.0591
     18 C6        -12.4417   60.8079   10.4637 C.ar        1 MOL       0.0268
     19 C2        -12.8880   61.7952    9.5505 C.2         1 MOL       0.1822
     20 N3        -12.1830   62.4605    8.6303 N.pl3       1 MOL      -0.1510
     21 N4        -12.9705   63.1951    7.9878 N.2         1 MOL      -0.0636
     22 N5        -14.1068   63.0686    8.4348 N.2         1 MOL      -0.1383
     23 N1        -14.1387   62.2403    9.3895 N.2         1 MOL      -0.2073
     24 H1         -9.2952   54.1210   11.1114 H           1 MOL       0.0680
     25 H2         -7.5557   51.8646   10.6035 H           1 MOL       0.1370
     26 H3         -5.7032   51.6056    8.9470 H           1 MOL       0.2935
     27 H4         -6.6783   56.0953    7.4948 H           1 MOL       0.0630
     28 H5         -8.4591   57.3644    8.4932 H           1 MOL       0.0669
     29 H6         -9.3632   58.4041    9.9455 H           1 MOL       0.2252
     30 H7        -10.8782   60.0747    9.2428 H           1 MOL       0.0543
     31 H8        -11.4091   57.9618   12.8421 H           1 MOL       0.0536
     32 H9        -13.1793   59.4692   13.4703 H           1 MOL       0.0588
     33 H10       -13.8881   61.2185   11.9735 H           1 MOL       0.0535
     34 H11       -11.2257   62.4235    8.4891 H           1 MOL       0.2708
@<TRIPOS>BOND
     1     1     2   2
     2     2     3   1
     3     2    12  am
     4     3     4  ar
     5     3    11  ar
     6     4     5  ar
     7     5     6   2
     8     5     9  ar
     9     6     7   1
    10     7     8   1
    11     8     9   2
    12     9    10  ar
    13    10    11  ar
    14    12    13   1
    15    13    14  ar
    16    13    15  ar
    17    14    18  ar
    18    15    16  ar
    19    16    17  ar
    20    17    18  ar
    21    18    19   1
    22    19    20   1
    23    19    23   2
    24    20    21   1
    25    21    22   2
    26    22    23   1
    27     4    24   1
    28     6    25   1
    29     7    26   1
    30    10    27   1
    31    11    28   1
    32    12    29   1
    33    14    30   1
    34    15    31   1
    35    16    32   1
    36    17    33   1
    37    20    34   1
@<TRIPOS>SUBSTRUCTURE
     1  MOL      2

