@<TRIPOS>MOLECULE
4de1_ligand_008
    34    37
SMALL
GAST_HUCK
****
This file was generated by PARSER (from files_GN.cpp)

@<TRIPOS>ATOM
      1 O14        -7.7997   53.5251    9.6641 O.2         1 MOL      -0.3730
      2 C13        -7.4609   54.6972    9.5568 C.2         1 MOL       0.2323
      3 C15        -7.6294   55.3440    8.3519 C.ar        1 MOL       0.0570
      4 C20        -6.5361   55.5463    7.4715 C.ar        1 MOL      -0.0265
      5 C19        -6.7600   56.1402    6.2204 C.ar        1 MOL       0.0384
      6 C23        -5.9419   56.4142    5.1396 C.2         1 MOL       0.1104
      7 N22        -6.7198   57.0165    4.2145 N.pl3       1 MOL      -0.2442
      8 N21        -7.9490   57.1324    4.6281 N.2         1 MOL      -0.3319
      9 C18        -8.0256   56.6084    5.8606 C.ar        1 MOL      -0.0092
     10 C17        -9.1224   56.4650    6.7304 C.ar        1 MOL      -0.0531
     11 C16        -8.9203   55.8167    7.9659 C.ar        1 MOL      -0.0414
     12 N12        -6.9602   55.3630   10.5885 N.am        1 MOL      -0.2325
     13 C8         -6.6213   54.8842   11.8087 C.ar        1 MOL       0.0706
     14 C7         -6.0154   53.6344   11.9973 C.ar        1 MOL      -0.0238
     15 C9         -6.8479   55.7245   12.9368 C.ar        1 MOL      -0.0372
     16 C10        -6.4017   55.3350   14.2041 C.ar        1 MOL      -0.0702
     17 C11        -5.7449   54.0998   14.3794 C.ar        1 MOL      -0.0591
     18 C6         -5.5337   53.2341   13.2721 C.ar        1 MOL       0.0268
     19 C2         -4.7800   52.0617   13.4112 C.2         1 MOL       0.1822
     20 N3         -5.1726   50.7851   13.3816 N.pl3       1 MOL      -0.1510
     21 N4         -4.1509   50.0572   13.4993 N.2         1 MOL      -0.0636
     22 N5         -3.1380   50.7802   13.5320 N.2         1 MOL      -0.1383
     23 N1         -3.4417   52.0033   13.4907 N.2         1 MOL      -0.2073
     24 H1         -5.5908   55.2126    7.7080 H           1 MOL       0.0680
     25 H2         -4.9473   56.1879    5.0500 H           1 MOL       0.1370
     26 H3         -6.4078   57.2831    3.3388 H           1 MOL       0.2935
     27 H4        -10.0501   56.8065    6.4724 H           1 MOL       0.0630
     28 H5         -9.7159   55.6820    8.5947 H           1 MOL       0.0669
     29 H6         -6.9344   56.3272   10.4680 H           1 MOL       0.2252
     30 H7         -5.8153   53.0396   11.1846 H           1 MOL       0.0543
     31 H8         -7.2626   56.6485   12.8153 H           1 MOL       0.0536
     32 H9         -6.5401   55.9552   15.0071 H           1 MOL       0.0588
     33 H10        -5.4050   53.8414   15.3111 H           1 MOL       0.0535
     34 H11        -6.0923   50.4687   13.3252 H           1 MOL       0.2708
@<TRIPOS>BOND
     1     1     2   2
     2     2     3   1
     3     2    12  am
     4     3     4  ar
     5     3    11  ar
     6     4     5  ar
     7     5     6   2
     8     5     9  ar
     9     6     7   1
    10     7     8   1
    11     8     9   2
    12     9    10  ar
    13    10    11  ar
    14    12    13   1
    15    13    14  ar
    16    13    15  ar
    17    14    18  ar
    18    15    16  ar
    19    16    17  ar
    20    17    18  ar
    21    18    19   1
    22    19    20   1
    23    19    23   2
    24    20    21   1
    25    21    22   2
    26    22    23   1
    27     4    24   1
    28     6    25   1
    29     7    26   1
    30    10    27   1
    31    11    28   1
    32    12    29   1
    33    14    30   1
    34    15    31   1
    35    16    32   1
    36    17    33   1
    37    20    34   1
@<TRIPOS>SUBSTRUCTURE
     1  MOL      2

