@<TRIPOS>MOLECULE
4de1_ligand_022
    34    37
SMALL
GAST_HUCK
****
This file was generated by PARSER (from files_GN.cpp)

@<TRIPOS>ATOM
      1 O14        -3.3941   50.5824   10.8486 O.2         1 MOL      -0.3730
      2 C13        -3.9172   51.6074   10.4433 C.2         1 MOL       0.2323
      3 C15        -4.7318   52.3503   11.3067 C.ar        1 MOL       0.0570
      4 C20        -4.4621   52.4220   12.7071 C.ar        1 MOL      -0.0265
      5 C19        -5.2770   53.2236   13.5290 C.ar        1 MOL       0.0384
      6 C23        -5.2294   53.5581   14.8764 C.2         1 MOL       0.1104
      7 N22        -6.2340   54.4215   15.0979 N.pl3       1 MOL      -0.2442
      8 N21        -6.9178   54.6354   14.0166 N.2         1 MOL      -0.3319
      9 C18        -6.3687   53.9185   13.0233 C.ar        1 MOL      -0.0092
     10 C17        -6.6865   53.8384   11.6565 C.ar        1 MOL      -0.0531
     11 C16        -5.8613   53.0691   10.8129 C.ar        1 MOL      -0.0414
     12 N12        -3.6222   52.0840    9.2386 N.am        1 MOL      -0.2325
     13 C8         -2.8861   51.5563    8.2129 C.ar        1 MOL       0.0706
     14 C7         -2.8155   50.1747    7.8873 C.ar        1 MOL      -0.0238
     15 C9         -2.2299   52.4698    7.3627 C.ar        1 MOL      -0.0372
     16 C10        -1.5282   52.0371    6.2186 C.ar        1 MOL      -0.0702
     17 C11        -1.5102   50.6720    5.8911 C.ar        1 MOL      -0.0591
     18 C6         -2.1267   49.7219    6.7326 C.ar        1 MOL       0.0268
     19 C2         -2.0991   48.3430    6.4006 C.2         1 MOL       0.1822
     20 N3         -2.1464   47.2964    7.2327 N.pl3       1 MOL      -0.1510
     21 N4         -2.1467   46.2394    6.5591 N.2         1 MOL      -0.0636
     22 N5         -2.1139   46.5268    5.3562 N.2         1 MOL      -0.1383
     23 N1         -2.0697   47.7906    5.1749 N.2         1 MOL      -0.2073
     24 H1         -3.6444   51.9627   13.1048 H           1 MOL       0.0680
     25 H2         -4.5520   53.2269   15.5528 H           1 MOL       0.1370
     26 H3         -6.4300   54.8288   15.9553 H           1 MOL       0.2935
     27 H4         -7.4863   54.3645   11.2928 H           1 MOL       0.0630
     28 H5         -6.0945   53.0306    9.8133 H           1 MOL       0.0669
     29 H6         -3.8979   52.9981    9.1004 H           1 MOL       0.2252
     30 H7         -3.3257   49.4910    8.4557 H           1 MOL       0.0543
     31 H8         -2.2628   53.4656    7.5672 H           1 MOL       0.0536
     32 H9         -1.0423   52.7145    5.6424 H           1 MOL       0.0588
     33 H10        -1.0072   50.3814    5.0387 H           1 MOL       0.0535
     34 H11        -2.1443   47.3475    8.2100 H           1 MOL       0.2708
@<TRIPOS>BOND
     1     1     2   2
     2     2     3   1
     3     2    12  am
     4     3     4  ar
     5     3    11  ar
     6     4     5  ar
     7     5     6   2
     8     5     9  ar
     9     6     7   1
    10     7     8   1
    11     8     9   2
    12     9    10  ar
    13    10    11  ar
    14    12    13   1
    15    13    14  ar
    16    13    15  ar
    17    14    18  ar
    18    15    16  ar
    19    16    17  ar
    20    17    18  ar
    21    18    19   1
    22    19    20   1
    23    19    23   2
    24    20    21   1
    25    21    22   2
    26    22    23   1
    27     4    24   1
    28     6    25   1
    29     7    26   1
    30    10    27   1
    31    11    28   1
    32    12    29   1
    33    14    30   1
    34    15    31   1
    35    16    32   1
    36    17    33   1
    37    20    34   1
@<TRIPOS>SUBSTRUCTURE
     1  MOL      2

