@<TRIPOS>MOLECULE
4de1_ligand_025
    34    37
SMALL
GAST_HUCK
****
This file was generated by PARSER (from files_GN.cpp)

@<TRIPOS>ATOM
      1 O14        -2.1770   47.3251   13.8941 O.2         1 MOL      -0.3730
      2 C13        -1.8783   47.4060   12.7045 C.2         1 MOL       0.2323
      3 C15        -0.7274   46.7848   12.2401 C.ar        1 MOL       0.0570
      4 C20         0.0391   47.3672   11.1896 C.ar        1 MOL      -0.0265
      5 C19         1.2067   46.7198   10.7522 C.ar        1 MOL       0.0384
      6 C23         2.1752   47.0223    9.8047 C.2         1 MOL       0.1104
      7 N22         3.0657   46.0106    9.8207 N.pl3       1 MOL      -0.2442
      8 N21         2.7456   45.1119   10.7073 N.2         1 MOL      -0.3319
      9 C18         1.6090   45.5116   11.3084 C.ar        1 MOL      -0.0092
     10 C17         0.8686   44.9017   12.3303 C.ar        1 MOL      -0.0531
     11 C16        -0.2879   45.5541   12.8056 C.ar        1 MOL      -0.0414
     12 N12        -2.6907   47.9812   11.8296 N.am        1 MOL      -0.2325
     13 C8         -3.8764   48.5976   12.1021 C.ar        1 MOL       0.0706
     14 C7         -3.9461   49.7699   12.8890 C.ar        1 MOL      -0.0238
     15 C9         -5.0275   48.1377   11.4308 C.ar        1 MOL      -0.0372
     16 C10        -6.2435   48.8357   11.5417 C.ar        1 MOL      -0.0702
     17 C11        -6.3065   50.0198   12.2930 C.ar        1 MOL      -0.0591
     18 C6         -5.1586   50.4931   12.9650 C.ar        1 MOL       0.0268
     19 C2         -5.2108   51.7375   13.6029 C.2         1 MOL       0.1822
     20 N3         -5.0625   52.0149   14.8982 N.pl3       1 MOL      -0.1510
     21 N4         -5.2370   53.2554   15.0341 N.2         1 MOL      -0.0636
     22 N5         -5.4722   53.7728   13.9468 N.2         1 MOL      -0.1383
     23 N1         -5.4834   52.9126   13.0197 N.2         1 MOL      -0.2073
     24 H1         -0.2236   48.2637   10.7756 H           1 MOL       0.0680
     25 H2          2.2226   47.8444    9.2115 H           1 MOL       0.1370
     26 H3          3.8491   45.9586    9.2548 H           1 MOL       0.2935
     27 H4          1.1708   44.0120   12.7254 H           1 MOL       0.0630
     28 H5         -0.8251   45.1112   13.5535 H           1 MOL       0.0669
     29 H6         -2.4870   47.8497   10.8909 H           1 MOL       0.2252
     30 H7         -3.0991   50.1296   13.3334 H           1 MOL       0.0543
     31 H8         -4.9831   47.2946   10.8516 H           1 MOL       0.0536
     32 H9         -7.0783   48.4864   11.0681 H           1 MOL       0.0588
     33 H10        -7.1891   50.5321   12.3445 H           1 MOL       0.0535
     34 H11        -4.9158   51.3844   15.6186 H           1 MOL       0.2708
@<TRIPOS>BOND
     1     1     2   2
     2     2     3   1
     3     2    12  am
     4     3     4  ar
     5     3    11  ar
     6     4     5  ar
     7     5     6   2
     8     5     9  ar
     9     6     7   1
    10     7     8   1
    11     8     9   2
    12     9    10  ar
    13    10    11  ar
    14    12    13   1
    15    13    14  ar
    16    13    15  ar
    17    14    18  ar
    18    15    16  ar
    19    16    17  ar
    20    17    18  ar
    21    18    19   1
    22    19    20   1
    23    19    23   2
    24    20    21   1
    25    21    22   2
    26    22    23   1
    27     4    24   1
    28     6    25   1
    29     7    26   1
    30    10    27   1
    31    11    28   1
    32    12    29   1
    33    14    30   1
    34    15    31   1
    35    16    32   1
    36    17    33   1
    37    20    34   1
@<TRIPOS>SUBSTRUCTURE
     1  MOL      2

