@<TRIPOS>MOLECULE
4de1_ligand_060
    34    37
SMALL
GAST_HUCK
****
This file was generated by PARSER (from files_GN.cpp)

@<TRIPOS>ATOM
      1 O14       -10.9476   54.8963   10.4760 O.2         1 MOL      -0.3730
      2 C13       -10.1649   55.7112   10.9716 C.2         1 MOL       0.2323
      3 C15        -8.8678   55.3088   11.2108 C.ar        1 MOL       0.0570
      4 C20        -8.1153   55.8185   12.3104 C.ar        1 MOL      -0.0265
      5 C19        -6.7905   55.3831   12.4906 C.ar        1 MOL       0.0384
      6 C23        -5.8225   55.6924   13.4285 C.2         1 MOL       0.1104
      7 N22        -4.7192   55.0019   13.0938 N.pl3       1 MOL      -0.2442
      8 N21        -4.9206   54.2767   12.0285 N.2         1 MOL      -0.3319
      9 C18        -6.1856   54.4812   11.6184 C.ar        1 MOL      -0.0092
     10 C17        -6.9023   53.9634   10.5288 C.ar        1 MOL      -0.0531
     11 C16        -8.2403   54.3623   10.3504 C.ar        1 MOL      -0.0414
     12 N12       -10.5939   56.9265   11.3211 N.am        1 MOL      -0.2325
     13 C8        -11.8751   57.3663   11.1735 C.ar        1 MOL       0.0706
     14 C7        -12.4898   57.4926    9.9024 C.ar        1 MOL      -0.0238
     15 C9        -12.5886   57.7344   12.3228 C.ar        1 MOL      -0.0372
     16 C10       -13.9333   58.1274   12.2254 C.ar        1 MOL      -0.0702
     17 C11       -14.5605   58.2100   10.9666 C.ar        1 MOL      -0.0591
     18 C6        -13.8281   57.9257    9.7838 C.ar        1 MOL       0.0268
     19 C2        -14.4345   58.0341    8.5122 C.2         1 MOL       0.1822
     20 N3        -13.8835   58.4595    7.3657 N.pl3       1 MOL      -0.1510
     21 N4        -14.7670   58.4036    6.4770 N.2         1 MOL      -0.0636
     22 N5        -15.8177   57.9675    6.9529 N.2         1 MOL      -0.1383
     23 N1        -15.6973   57.7282    8.1818 N.2         1 MOL      -0.2073
     24 H1         -8.5284   56.4793   12.9763 H           1 MOL       0.0680
     25 H2         -5.9277   56.3454   14.2059 H           1 MOL       0.1370
     26 H3         -3.8812   55.0418   13.5757 H           1 MOL       0.2935
     27 H4         -6.4576   53.3178    9.8774 H           1 MOL       0.0630
     28 H5         -8.7684   53.9812    9.5594 H           1 MOL       0.0669
     29 H6         -9.9591   57.5246   11.7699 H           1 MOL       0.2252
     30 H7        -11.9398   57.2637    9.0657 H           1 MOL       0.0543
     31 H8        -12.1375   57.6769   13.2394 H           1 MOL       0.0536
     32 H9        -14.4577   58.3657   13.0732 H           1 MOL       0.0588
     33 H10       -15.5202   58.5464   10.9088 H           1 MOL       0.0535
     34 H11       -12.9948   58.8400    7.2603 H           1 MOL       0.2708
@<TRIPOS>BOND
     1     1     2   2
     2     2     3   1
     3     2    12  am
     4     3     4  ar
     5     3    11  ar
     6     4     5  ar
     7     5     6   2
     8     5     9  ar
     9     6     7   1
    10     7     8   1
    11     8     9   2
    12     9    10  ar
    13    10    11  ar
    14    12    13   1
    15    13    14  ar
    16    13    15  ar
    17    14    18  ar
    18    15    16  ar
    19    16    17  ar
    20    17    18  ar
    21    18    19   1
    22    19    20   1
    23    19    23   2
    24    20    21   1
    25    21    22   2
    26    22    23   1
    27     4    24   1
    28     6    25   1
    29     7    26   1
    30    10    27   1
    31    11    28   1
    32    12    29   1
    33    14    30   1
    34    15    31   1
    35    16    32   1
    36    17    33   1
    37    20    34   1
@<TRIPOS>SUBSTRUCTURE
     1  MOL      2

