@<TRIPOS>MOLECULE
4de1_ligand_083
    34    37
SMALL
GAST_HUCK
****
This file was generated by PARSER (from files_GN.cpp)

@<TRIPOS>ATOM
      1 O14       -13.0893   55.6111    8.7001 O.2         1 MOL      -0.3730
      2 C13       -12.4711   56.5659    8.2383 C.2         1 MOL       0.2323
      3 C15       -11.2226   56.3445    7.7106 C.ar        1 MOL       0.0570
      4 C20       -10.0894   56.3736    8.5598 C.ar        1 MOL      -0.0265
      5 C19        -8.8148   56.2120    7.9878 C.ar        1 MOL       0.0384
      6 C23        -7.5378   56.1859    8.5161 C.2         1 MOL       0.1104
      7 N22        -6.6963   56.0091    7.4835 N.pl3       1 MOL      -0.2442
      8 N21        -7.3438   55.9161    6.3587 N.2         1 MOL      -0.3319
      9 C18        -8.6562   56.0334    6.6169 C.ar        1 MOL      -0.0092
     10 C17        -9.7669   55.9976    5.7618 C.ar        1 MOL      -0.0531
     11 C16       -11.0570   56.1518    6.3155 C.ar        1 MOL      -0.0414
     12 N12       -12.9809   57.7801    8.1854 N.am        1 MOL      -0.2325
     13 C8        -14.1543   58.2346    8.7232 C.ar        1 MOL       0.0706
     14 C7        -14.5105   57.9671   10.0688 C.ar        1 MOL      -0.0238
     15 C9        -14.9780   59.0529    7.9409 C.ar        1 MOL      -0.0372
     16 C10       -16.1527   59.6095    8.4855 C.ar        1 MOL      -0.0702
     17 C11       -16.4732   59.3784    9.8356 C.ar        1 MOL      -0.0591
     18 C6        -15.6626   58.5611   10.6398 C.ar        1 MOL       0.0268
     19 C2        -15.9430   58.3785   12.0155 C.2         1 MOL       0.1822
     20 N3        -15.8557   57.2616   12.7364 N.pl3       1 MOL      -0.1510
     21 N4        -16.1862   57.5338   13.9207 N.2         1 MOL      -0.0636
     22 N5        -16.4768   58.7163   14.0046 N.2         1 MOL      -0.1383
     23 N1        -16.3547   59.3001   12.8877 N.2         1 MOL      -0.2073
     24 H1        -10.1787   56.5218    9.5701 H           1 MOL       0.0680
     25 H2         -7.2788   56.2876    9.5005 H           1 MOL       0.1370
     26 H3         -5.7331   55.9643    7.5670 H           1 MOL       0.2935
     27 H4         -9.6442   55.8685    4.7566 H           1 MOL       0.0630
     28 H5        -11.8710   56.1295    5.6925 H           1 MOL       0.0669
     29 H6        -12.4633   58.4393    7.6908 H           1 MOL       0.2252
     30 H7        -13.8869   57.4021   10.6467 H           1 MOL       0.0543
     31 H8        -14.7420   59.2541    6.9653 H           1 MOL       0.0536
     32 H9        -16.7503   60.2001    7.9106 H           1 MOL       0.0588
     33 H10       -17.3303   59.7908   10.2112 H           1 MOL       0.0535
     34 H11       -15.5964   56.3893   12.4087 H           1 MOL       0.2708
@<TRIPOS>BOND
     1     1     2   2
     2     2     3   1
     3     2    12  am
     4     3     4  ar
     5     3    11  ar
     6     4     5  ar
     7     5     6   2
     8     5     9  ar
     9     6     7   1
    10     7     8   1
    11     8     9   2
    12     9    10  ar
    13    10    11  ar
    14    12    13   1
    15    13    14  ar
    16    13    15  ar
    17    14    18  ar
    18    15    16  ar
    19    16    17  ar
    20    17    18  ar
    21    18    19   1
    22    19    20   1
    23    19    23   2
    24    20    21   1
    25    21    22   2
    26    22    23   1
    27     4    24   1
    28     6    25   1
    29     7    26   1
    30    10    27   1
    31    11    28   1
    32    12    29   1
    33    14    30   1
    34    15    31   1
    35    16    32   1
    36    17    33   1
    37    20    34   1
@<TRIPOS>SUBSTRUCTURE
     1  MOL      2

