@<TRIPOS>MOLECULE
4de1_ligand_007
    34    37
SMALL
GAST_HUCK
****
This file was generated by PARSER (from files_GN.cpp)

@<TRIPOS>ATOM
      1 O14        -8.9303   54.2021    7.6113 O.2         1 MOL      -0.3730
      2 C13        -8.0666   54.9018    7.1014 C.2         1 MOL       0.2323
      3 C15        -7.4138   54.4645    5.9316 C.ar        1 MOL       0.0570
      4 C20        -7.5790   53.1248    5.4627 C.ar        1 MOL      -0.0265
      5 C19        -6.8814   52.6900    4.3195 C.ar        1 MOL       0.0384
      6 C23        -6.8008   51.4801    3.6561 C.2         1 MOL       0.1104
      7 N22        -5.9477   51.6542    2.6298 N.pl3       1 MOL      -0.2442
      8 N21        -5.4907   52.8704    2.6017 N.2         1 MOL      -0.3319
      9 C18        -6.0453   53.5488    3.6216 C.ar        1 MOL      -0.0092
     10 C17        -5.8759   54.8774    4.0268 C.ar        1 MOL      -0.0531
     11 C16        -6.5553   55.3218    5.1823 C.ar        1 MOL      -0.0414
     12 N12        -7.7677   56.0667    7.6774 N.am        1 MOL      -0.2325
     13 C8         -8.3067   56.5658    8.8246 C.ar        1 MOL       0.0706
     14 C7         -7.8097   56.1647   10.0823 C.ar        1 MOL      -0.0238
     15 C9         -9.3681   57.4927    8.7719 C.ar        1 MOL      -0.0372
     16 C10        -9.9772   57.9485    9.9556 C.ar        1 MOL      -0.0702
     17 C11        -9.5119   57.4988   11.2032 C.ar        1 MOL      -0.0591
     18 C6         -8.4037   56.6275   11.2794 C.ar        1 MOL       0.0268
     19 C2         -7.9129   56.2059   12.5311 C.2         1 MOL       0.1822
     20 N3         -6.6989   56.4083   13.0361 N.pl3       1 MOL      -0.1510
     21 N4         -6.6576   55.8866   14.1765 N.2         1 MOL      -0.0636
     22 N5         -7.7435   55.3761   14.4275 N.2         1 MOL      -0.1383
     23 N1         -8.5673   55.5284   13.4790 N.2         1 MOL      -0.2073
     24 H1         -8.1758   52.4543    5.9530 H           1 MOL       0.0680
     25 H2         -7.2821   50.6129    3.9004 H           1 MOL       0.1370
     26 H3         -5.6931   50.9597    2.0049 H           1 MOL       0.2935
     27 H4         -5.2664   55.5067    3.5060 H           1 MOL       0.0630
     28 H5         -6.3990   56.2888    5.4631 H           1 MOL       0.0669
     29 H6         -7.0899   56.6113    7.2467 H           1 MOL       0.2252
     30 H7         -7.0294   55.5031   10.1212 H           1 MOL       0.0543
     31 H8         -9.7205   57.8172    7.8694 H           1 MOL       0.0536
     32 H9        -10.7663   58.5993    9.9070 H           1 MOL       0.0588
     33 H10        -9.9727   57.8383   12.0575 H           1 MOL       0.0535
     34 H11        -5.9902   56.9356   12.6280 H           1 MOL       0.2708
@<TRIPOS>BOND
     1     1     2   2
     2     2     3   1
     3     2    12  am
     4     3     4  ar
     5     3    11  ar
     6     4     5  ar
     7     5     6   2
     8     5     9  ar
     9     6     7   1
    10     7     8   1
    11     8     9   2
    12     9    10  ar
    13    10    11  ar
    14    12    13   1
    15    13    14  ar
    16    13    15  ar
    17    14    18  ar
    18    15    16  ar
    19    16    17  ar
    20    17    18  ar
    21    18    19   1
    22    19    20   1
    23    19    23   2
    24    20    21   1
    25    21    22   2
    26    22    23   1
    27     4    24   1
    28     6    25   1
    29     7    26   1
    30    10    27   1
    31    11    28   1
    32    12    29   1
    33    14    30   1
    34    15    31   1
    35    16    32   1
    36    17    33   1
    37    20    34   1
@<TRIPOS>SUBSTRUCTURE
     1  MOL      2

