@<TRIPOS>MOLECULE
4de1_ligand_002
    34    37
SMALL
GAST_HUCK
****
This file was generated by PARSER (from files_GN.cpp)

@<TRIPOS>ATOM
      1 O14        -1.6288   53.1473   13.8062 O.2         1 MOL      -0.3730
      2 C13        -2.0027   52.5934   12.7812 C.2         1 MOL       0.2323
      3 C15        -1.0572   52.2629   11.8417 C.ar        1 MOL       0.0570
      4 C20        -0.3223   53.2797   11.1840 C.ar        1 MOL      -0.0265
      5 C19         0.6596   52.9030   10.2557 C.ar        1 MOL       0.0384
      6 C23         1.5413   53.6260    9.4735 C.2         1 MOL       0.1104
      7 N22         2.2771   52.7265    8.8003 N.pl3       1 MOL      -0.2442
      8 N21         1.9185   51.5065    9.0819 N.2         1 MOL      -0.3319
      9 C18         0.9255   51.5662    9.9806 C.ar        1 MOL      -0.0092
     10 C17         0.2092   50.5439   10.6228 C.ar        1 MOL      -0.0531
     11 C16        -0.7925   50.9002   11.5514 C.ar        1 MOL      -0.0414
     12 N12        -3.2790   52.4343   12.4738 N.am        1 MOL      -0.2325
     13 C8         -4.3462   52.7294   13.2630 C.ar        1 MOL       0.0706
     14 C7         -5.2402   53.7484   12.8674 C.ar        1 MOL      -0.0238
     15 C9         -4.6443   51.9465   14.3984 C.ar        1 MOL      -0.0372
     16 C10        -5.8383   52.1592   15.1062 C.ar        1 MOL      -0.0702
     17 C11        -6.7286   53.1642   14.6984 C.ar        1 MOL      -0.0591
     18 C6         -6.4336   53.9923   13.5899 C.ar        1 MOL       0.0268
     19 C2         -7.3263   55.0204   13.2012 C.2         1 MOL       0.1822
     20 N3         -7.0780   56.0900   12.4406 N.pl3       1 MOL      -0.1510
     21 N4         -8.1434   56.7460   12.3263 N.2         1 MOL      -0.0636
     22 N5         -9.0393   56.1885   12.9515 N.2         1 MOL      -0.1383
     23 N1         -8.6203   55.1418   13.5180 N.2         1 MOL      -0.2073
     24 H1         -0.4983   54.2716   11.3670 H           1 MOL       0.0680
     25 H2          1.6365   54.6435    9.4376 H           1 MOL       0.1370
     26 H3          3.0110   52.9567    8.2102 H           1 MOL       0.2935
     27 H4          0.4159   49.5614   10.4228 H           1 MOL       0.0630
     28 H5         -1.3158   50.1594   12.0312 H           1 MOL       0.0669
     29 H6         -3.4794   52.1359   11.5737 H           1 MOL       0.2252
     30 H7         -5.0221   54.3062   12.0381 H           1 MOL       0.0543
     31 H8         -4.0178   51.1883   14.6762 H           1 MOL       0.0536
     32 H9         -6.0693   51.5696   15.9059 H           1 MOL       0.0588
     33 H10        -7.5955   53.2812   15.2280 H           1 MOL       0.0535
     34 H11        -6.2190   56.3474   12.0708 H           1 MOL       0.2708
@<TRIPOS>BOND
     1     1     2   2
     2     2     3   1
     3     2    12  am
     4     3     4  ar
     5     3    11  ar
     6     4     5  ar
     7     5     6   2
     8     5     9  ar
     9     6     7   1
    10     7     8   1
    11     8     9   2
    12     9    10  ar
    13    10    11  ar
    14    12    13   1
    15    13    14  ar
    16    13    15  ar
    17    14    18  ar
    18    15    16  ar
    19    16    17  ar
    20    17    18  ar
    21    18    19   1
    22    19    20   1
    23    19    23   2
    24    20    21   1
    25    21    22   2
    26    22    23   1
    27     4    24   1
    28     6    25   1
    29     7    26   1
    30    10    27   1
    31    11    28   1
    32    12    29   1
    33    14    30   1
    34    15    31   1
    35    16    32   1
    36    17    33   1
    37    20    34   1
@<TRIPOS>SUBSTRUCTURE
     1  MOL      2

