@<TRIPOS>MOLECULE
4de1_ligand_080
    34    37
SMALL
GAST_HUCK
****
This file was generated by PARSER (from files_GN.cpp)

@<TRIPOS>ATOM
      1 O14        -6.8378   49.1861    9.3103 O.2         1 MOL      -0.3730
      2 C13        -6.4548   48.9444   10.4495 C.2         1 MOL       0.2323
      3 C15        -6.6831   49.8770   11.4537 C.ar        1 MOL       0.0570
      4 C20        -5.7233   50.0850   12.4772 C.ar        1 MOL      -0.0265
      5 C19        -5.9896   51.0217   13.4859 C.ar        1 MOL       0.0384
      6 C23        -5.2780   51.4480   14.5890 C.2         1 MOL       0.1104
      7 N22        -6.0500   52.3467   15.2211 N.pl3       1 MOL      -0.2442
      8 N21        -7.1756   52.5273   14.5981 N.2         1 MOL      -0.3319
      9 C18        -7.1822   51.7348   13.5116 C.ar        1 MOL      -0.0092
     10 C17        -8.1503   51.5552   12.5132 C.ar        1 MOL      -0.0531
     11 C16        -7.8911   50.6328   11.4781 C.ar        1 MOL      -0.0414
     12 N12        -5.8347   47.8068   10.7307 N.am        1 MOL      -0.2325
     13 C8         -5.4911   46.8599    9.8285 C.ar        1 MOL       0.0706
     14 C7         -4.2245   46.9110    9.2200 C.ar        1 MOL      -0.0238
     15 C9         -6.4126   45.8623    9.4519 C.ar        1 MOL      -0.0372
     16 C10        -6.0723   44.9426    8.4424 C.ar        1 MOL      -0.0702
     17 C11        -4.8159   45.0149    7.8147 C.ar        1 MOL      -0.0591
     18 C6         -3.8736   45.9958    8.2037 C.ar        1 MOL       0.0268
     19 C2         -2.5993   46.0738    7.5960 C.2         1 MOL       0.1822
     20 N3         -1.4997   46.6234    8.1057 N.pl3       1 MOL      -0.1510
     21 N4         -0.5814   46.5259    7.2551 N.2         1 MOL      -0.0636
     22 N5         -1.0038   45.9428    6.2598 N.2         1 MOL      -0.1383
     23 N1         -2.2246   45.6298    6.3970 N.2         1 MOL      -0.2073
     24 H1         -4.8333   49.5784   12.4870 H           1 MOL       0.0680
     25 H2         -4.3514   51.1318   14.8810 H           1 MOL       0.1370
     26 H3         -5.7991   52.7908   16.0458 H           1 MOL       0.2935
     27 H4         -9.0270   52.0780   12.5377 H           1 MOL       0.0630
     28 H5         -8.6004   50.4978   10.7531 H           1 MOL       0.0669
     29 H6         -5.5744   47.6491   11.6484 H           1 MOL       0.2252
     30 H7         -3.5693   47.6417    9.5087 H           1 MOL       0.0543
     31 H8         -7.3279   45.8087    9.9019 H           1 MOL       0.0536
     32 H9         -6.7390   44.2176    8.1733 H           1 MOL       0.0588
     33 H10        -4.5949   44.3457    7.0736 H           1 MOL       0.0535
     34 H11        -1.4204   47.0431    8.9764 H           1 MOL       0.2708
@<TRIPOS>BOND
     1     1     2   2
     2     2     3   1
     3     2    12  am
     4     3     4  ar
     5     3    11  ar
     6     4     5  ar
     7     5     6   2
     8     5     9  ar
     9     6     7   1
    10     7     8   1
    11     8     9   2
    12     9    10  ar
    13    10    11  ar
    14    12    13   1
    15    13    14  ar
    16    13    15  ar
    17    14    18  ar
    18    15    16  ar
    19    16    17  ar
    20    17    18  ar
    21    18    19   1
    22    19    20   1
    23    19    23   2
    24    20    21   1
    25    21    22   2
    26    22    23   1
    27     4    24   1
    28     6    25   1
    29     7    26   1
    30    10    27   1
    31    11    28   1
    32    12    29   1
    33    14    30   1
    34    15    31   1
    35    16    32   1
    36    17    33   1
    37    20    34   1
@<TRIPOS>SUBSTRUCTURE
     1  MOL      2

