@<TRIPOS>MOLECULE
4de1_ligand_029
    34    37
SMALL
GAST_HUCK
****
This file was generated by PARSER (from files_GN.cpp)

@<TRIPOS>ATOM
      1 O14        -7.9512   56.5154   10.3506 O.2         1 MOL      -0.3730
      2 C13        -7.9634   55.3280   10.6626 C.2         1 MOL       0.2323
      3 C15        -7.5272   54.9536   11.9466 C.ar        1 MOL       0.0570
      4 C20        -7.5013   53.5905   12.3576 C.ar        1 MOL      -0.0265
      5 C19        -7.0309   53.2564   13.6355 C.ar        1 MOL       0.0384
      6 C23        -6.8703   52.0510   14.2912 C.2         1 MOL       0.1104
      7 N22        -6.3668   52.3350   15.5036 N.pl3       1 MOL      -0.2442
      8 N21        -6.1868   53.6137   15.6516 N.2         1 MOL      -0.3319
      9 C18        -6.5878   54.2260   14.5252 C.ar        1 MOL      -0.0092
     10 C17        -6.6029   55.5803   14.1644 C.ar        1 MOL      -0.0531
     11 C16        -7.0699   55.9328   12.8804 C.ar        1 MOL      -0.0414
     12 N12        -8.4364   54.4394    9.7901 N.am        1 MOL      -0.2325
     13 C8         -8.8511   54.6493    8.5040 C.ar        1 MOL       0.0706
     14 C7         -8.1641   55.4951    7.5982 C.ar        1 MOL      -0.0238
     15 C9         -9.9886   53.9487    8.0480 C.ar        1 MOL      -0.0372
     16 C10       -10.4926   54.1669    6.7549 C.ar        1 MOL      -0.0702
     17 C11        -9.8509   55.0707    5.8894 C.ar        1 MOL      -0.0591
     18 C6         -8.6657   55.7179    6.2979 C.ar        1 MOL       0.0268
     19 C2         -7.9778   56.5662    5.4239 C.2         1 MOL       0.1822
     20 N3         -8.3886   57.7361    4.9421 N.pl3       1 MOL      -0.1510
     21 N4         -7.4384   58.2192    4.2741 N.2         1 MOL      -0.0636
     22 N5         -6.4733   57.4556    4.3018 N.2         1 MOL      -0.1383
     23 N1         -6.7246   56.4245    4.9857 N.2         1 MOL      -0.2073
     24 H1         -7.8050   52.8305   11.7469 H           1 MOL       0.0680
     25 H2         -7.0771   51.1232   13.9178 H           1 MOL       0.1370
     26 H3         -6.1437   51.6767   16.1767 H           1 MOL       0.2935
     27 H4         -6.2740   56.2948   14.8197 H           1 MOL       0.0630
     28 H5         -7.0661   56.9243   12.6335 H           1 MOL       0.0669
     29 H6         -8.5714   53.5412   10.1208 H           1 MOL       0.2252
     30 H7         -7.2955   55.9527    7.8870 H           1 MOL       0.0543
     31 H8        -10.4755   53.2982    8.6725 H           1 MOL       0.0536
     32 H9        -11.3322   53.6736    6.4425 H           1 MOL       0.0588
     33 H10       -10.2281   55.2254    4.9497 H           1 MOL       0.0535
     34 H11        -9.2230   58.1810    5.1709 H           1 MOL       0.2708
@<TRIPOS>BOND
     1     1     2   2
     2     2     3   1
     3     2    12  am
     4     3     4  ar
     5     3    11  ar
     6     4     5  ar
     7     5     6   2
     8     5     9  ar
     9     6     7   1
    10     7     8   1
    11     8     9   2
    12     9    10  ar
    13    10    11  ar
    14    12    13   1
    15    13    14  ar
    16    13    15  ar
    17    14    18  ar
    18    15    16  ar
    19    16    17  ar
    20    17    18  ar
    21    18    19   1
    22    19    20   1
    23    19    23   2
    24    20    21   1
    25    21    22   2
    26    22    23   1
    27     4    24   1
    28     6    25   1
    29     7    26   1
    30    10    27   1
    31    11    28   1
    32    12    29   1
    33    14    30   1
    34    15    31   1
    35    16    32   1
    36    17    33   1
    37    20    34   1
@<TRIPOS>SUBSTRUCTURE
     1  MOL      2

