@<TRIPOS>MOLECULE
4de1_ligand_000
    34    37
SMALL
GAST_HUCK
****
This file was generated by PARSER (from files_GN.cpp)

@<TRIPOS>ATOM
      1 O14        -2.1087   53.1596   13.4086 O.2         1 MOL      -0.3730
      2 C13        -2.9481   53.5732   12.6284 C.2         1 MOL       0.2323
      3 C15        -4.2088   53.9916   13.0954 C.ar        1 MOL       0.0570
      4 C20        -5.0080   54.8754   12.3200 C.ar        1 MOL      -0.0265
      5 C19        -6.2693   55.2650   12.7765 C.ar        1 MOL       0.0384
      6 C23        -7.2445   56.0980   12.2626 C.2         1 MOL       0.1104
      7 N22        -8.2647   56.0897   13.1365 N.pl3       1 MOL      -0.2442
      8 N21        -8.0044   55.3161   14.1445 N.2         1 MOL      -0.3319
      9 C18        -6.7805   54.7835   13.9743 C.ar        1 MOL      -0.0092
     10 C17        -6.0236   53.9074   14.7757 C.ar        1 MOL      -0.0531
     11 C16        -4.7399   53.5192   14.3341 C.ar        1 MOL      -0.0414
     12 N12        -2.7394   53.5218   11.3246 N.am        1 MOL      -0.2325
     13 C8         -1.6214   53.2838   10.5904 C.ar        1 MOL       0.0706
     14 C7         -1.7915   52.7209    9.3014 C.ar        1 MOL      -0.0238
     15 C9         -0.3374   53.7351   10.9675 C.ar        1 MOL      -0.0372
     16 C10         0.7386   53.6631   10.0591 C.ar        1 MOL      -0.0702
     17 C11         0.5400   53.1248    8.7722 C.ar        1 MOL      -0.0591
     18 C6         -0.7206   52.6215    8.3867 C.ar        1 MOL       0.0268
     19 C2         -0.9073   52.0176    7.1212 C.2         1 MOL       0.1822
     20 N3         -0.6550   52.5142    5.9131 N.pl3       1 MOL      -0.1510
     21 N4         -0.9469   51.6306    5.0611 N.2         1 MOL      -0.0636
     22 N5         -1.3577   50.6207    5.6322 N.2         1 MOL      -0.1383
     23 N1         -1.3733   50.7857    6.8914 N.2         1 MOL      -0.2073
     24 H1         -4.6758   55.2559   11.4352 H           1 MOL       0.0680
     25 H2         -7.2024   56.6275   11.3887 H           1 MOL       0.1370
     26 H3         -9.0806   56.5968   13.0239 H           1 MOL       0.2935
     27 H4         -6.4029   53.5535   15.6560 H           1 MOL       0.0630
     28 H5         -4.2089   52.8760   14.9118 H           1 MOL       0.0669
     29 H6         -3.5259   53.6920   10.7766 H           1 MOL       0.2252
     30 H7         -2.7315   52.4159    9.0102 H           1 MOL       0.0543
     31 H8         -0.1975   54.1751   11.8736 H           1 MOL       0.0536
     32 H9          1.6497   54.0286   10.3269 H           1 MOL       0.0588
     33 H10         1.3381   53.0922    8.1305 H           1 MOL       0.0535
     34 H11        -0.3565   53.4097    5.7053 H           1 MOL       0.2708
@<TRIPOS>BOND
     1     1     2   2
     2     2     3   1
     3     2    12  am
     4     3     4  ar
     5     3    11  ar
     6     4     5  ar
     7     5     6   2
     8     5     9  ar
     9     6     7   1
    10     7     8   1
    11     8     9   2
    12     9    10  ar
    13    10    11  ar
    14    12    13   1
    15    13    14  ar
    16    13    15  ar
    17    14    18  ar
    18    15    16  ar
    19    16    17  ar
    20    17    18  ar
    21    18    19   1
    22    19    20   1
    23    19    23   2
    24    20    21   1
    25    21    22   2
    26    22    23   1
    27     4    24   1
    28     6    25   1
    29     7    26   1
    30    10    27   1
    31    11    28   1
    32    12    29   1
    33    14    30   1
    34    15    31   1
    35    16    32   1
    36    17    33   1
    37    20    34   1
@<TRIPOS>SUBSTRUCTURE
     1  MOL      2

