@<TRIPOS>MOLECULE
4de1_ligand_084
    34    37
SMALL
GAST_HUCK
****
This file was generated by PARSER (from files_GN.cpp)

@<TRIPOS>ATOM
      1 O14        -4.0096   49.7815   10.8235 O.2         1 MOL      -0.3730
      2 C13        -3.1051   50.0452   10.0376 C.2         1 MOL       0.2323
      3 C15        -2.6961   49.0865    9.1147 C.ar        1 MOL       0.0570
      4 C20        -2.5343   47.7274    9.4933 C.ar        1 MOL      -0.0265
      5 C19        -2.0034   46.8141    8.5654 C.ar        1 MOL       0.0384
      6 C23        -1.6431   45.4753    8.6333 C.2         1 MOL       0.1104
      7 N22        -1.1324   45.1528    7.4248 N.pl3       1 MOL      -0.2442
      8 N21        -1.1368   46.1699    6.6246 N.2         1 MOL      -0.3319
      9 C18        -1.6787   47.2138    7.2744 C.ar        1 MOL      -0.0092
     10 C17        -1.8969   48.5328    6.8500 C.ar        1 MOL      -0.0531
     11 C16        -2.3915   49.4634    7.7775 C.ar        1 MOL      -0.0414
     12 N12        -2.4415   51.1940   10.1143 N.am        1 MOL      -0.2325
     13 C8         -2.6998   52.2019   11.0007 C.ar        1 MOL       0.0706
     14 C7         -3.9722   52.8017   11.0660 C.ar        1 MOL      -0.0238
     15 C9         -1.6638   52.6691   11.8441 C.ar        1 MOL      -0.0372
     16 C10        -1.9383   53.6480   12.8146 C.ar        1 MOL      -0.0702
     17 C11        -3.2324   54.2056   12.9119 C.ar        1 MOL      -0.0591
     18 C6         -4.2350   53.8297   12.0057 C.ar        1 MOL       0.0268
     19 C2         -5.4902   54.4740   12.0138 C.2         1 MOL       0.1822
     20 N3         -6.2334   54.8260   13.0736 N.pl3       1 MOL      -0.1510
     21 N4         -7.2559   55.4126   12.6431 N.2         1 MOL      -0.0636
     22 N5         -7.2268   55.4628   11.4129 N.2         1 MOL      -0.1383
     23 N1         -6.1893   54.9153   10.9588 N.2         1 MOL      -0.2073
     24 H1         -2.7324   47.4140   10.4514 H           1 MOL       0.0680
     25 H2         -1.7299   44.8549    9.4323 H           1 MOL       0.1370
     26 H3         -0.7751   44.2813    7.2022 H           1 MOL       0.2935
     27 H4         -1.6619   48.8130    5.8957 H           1 MOL       0.0630
     28 H5         -2.5294   50.4309    7.4643 H           1 MOL       0.0669
     29 H6         -1.6463   51.2897    9.5703 H           1 MOL       0.2252
     30 H7         -4.6985   52.4976   10.4144 H           1 MOL       0.0543
     31 H8         -0.7219   52.2799   11.7781 H           1 MOL       0.0536
     32 H9         -1.2050   53.9586   13.4577 H           1 MOL       0.0588
     33 H10        -3.3953   54.9377   13.6039 H           1 MOL       0.0535
     34 H11        -6.0224   54.6453   13.9997 H           1 MOL       0.2708
@<TRIPOS>BOND
     1     1     2   2
     2     2     3   1
     3     2    12  am
     4     3     4  ar
     5     3    11  ar
     6     4     5  ar
     7     5     6   2
     8     5     9  ar
     9     6     7   1
    10     7     8   1
    11     8     9   2
    12     9    10  ar
    13    10    11  ar
    14    12    13   1
    15    13    14  ar
    16    13    15  ar
    17    14    18  ar
    18    15    16  ar
    19    16    17  ar
    20    17    18  ar
    21    18    19   1
    22    19    20   1
    23    19    23   2
    24    20    21   1
    25    21    22   2
    26    22    23   1
    27     4    24   1
    28     6    25   1
    29     7    26   1
    30    10    27   1
    31    11    28   1
    32    12    29   1
    33    14    30   1
    34    15    31   1
    35    16    32   1
    36    17    33   1
    37    20    34   1
@<TRIPOS>SUBSTRUCTURE
     1  MOL      2

