@<TRIPOS>MOLECULE
4de1_ligand_082
    34    37
SMALL
GAST_HUCK
****
This file was generated by PARSER (from files_GN.cpp)

@<TRIPOS>ATOM
      1 O14        -7.0815   52.5826   10.8036 O.2         1 MOL      -0.3730
      2 C13        -6.4932   51.7077   11.4551 C.2         1 MOL       0.2323
      3 C15        -5.1776   51.9510   11.8537 C.ar        1 MOL       0.0570
      4 C20        -4.7766   53.2674   12.2466 C.ar        1 MOL      -0.0265
      5 C19        -3.5031   53.4793   12.7829 C.ar        1 MOL       0.0384
      6 C23        -2.8607   54.5823   13.3205 C.2         1 MOL       0.1104
      7 N22        -1.6549   54.1763   13.7345 N.pl3       1 MOL      -0.2442
      8 N21        -1.4738   52.9129   13.4767 N.2         1 MOL      -0.3319
      9 C18        -2.5814   52.4396   12.8949 C.ar        1 MOL      -0.0092
     10 C17        -2.9124   51.1446   12.4712 C.ar        1 MOL      -0.0531
     11 C16        -4.2155   50.9052   11.9802 C.ar        1 MOL      -0.0414
     12 N12        -7.1470   50.6217   11.8742 N.am        1 MOL      -0.2325
     13 C8         -8.4811   50.3702   11.7007 C.ar        1 MOL       0.0706
     14 C7         -8.9217   49.3156   10.8768 C.ar        1 MOL      -0.0238
     15 C9         -9.4420   51.1324   12.4061 C.ar        1 MOL      -0.0372
     16 C10       -10.8133   50.8695   12.2526 C.ar        1 MOL      -0.0702
     17 C11       -11.2533   49.8507   11.3916 C.ar        1 MOL      -0.0591
     18 C6        -10.3064   49.0514   10.6990 C.ar        1 MOL       0.0268
     19 C2        -10.7506   48.0466    9.8040 C.2         1 MOL       0.1822
     20 N3        -10.0178   47.3890    8.8971 N.pl3       1 MOL      -0.1510
     21 N4        -10.7646   46.5766    8.2891 N.2         1 MOL      -0.0636
     22 N5        -11.9064   46.6419    8.7601 N.2         1 MOL      -0.1383
     23 N1        -11.9831   47.5282    9.6620 N.2         1 MOL      -0.2073
     24 H1         -5.4136   54.0629   12.1855 H           1 MOL       0.0680
     25 H2         -3.2381   55.5249   13.4333 H           1 MOL       0.1370
     26 H3         -0.9976   54.7365   14.1739 H           1 MOL       0.2935
     27 H4         -2.2236   50.3889   12.5521 H           1 MOL       0.0630
     28 H5         -4.4496   49.9506   11.6895 H           1 MOL       0.0669
     29 H6         -6.6498   49.9598   12.3998 H           1 MOL       0.2252
     30 H7         -8.2334   48.7425   10.3792 H           1 MOL       0.0543
     31 H8         -9.1386   51.8783   13.0385 H           1 MOL       0.0536
     32 H9        -11.4932   51.4398   12.7791 H           1 MOL       0.0588
     33 H10       -12.2635   49.6868   11.3032 H           1 MOL       0.0535
     34 H11        -9.0698   47.5498    8.7063 H           1 MOL       0.2708
@<TRIPOS>BOND
     1     1     2   2
     2     2     3   1
     3     2    12  am
     4     3     4  ar
     5     3    11  ar
     6     4     5  ar
     7     5     6   2
     8     5     9  ar
     9     6     7   1
    10     7     8   1
    11     8     9   2
    12     9    10  ar
    13    10    11  ar
    14    12    13   1
    15    13    14  ar
    16    13    15  ar
    17    14    18  ar
    18    15    16  ar
    19    16    17  ar
    20    17    18  ar
    21    18    19   1
    22    19    20   1
    23    19    23   2
    24    20    21   1
    25    21    22   2
    26    22    23   1
    27     4    24   1
    28     6    25   1
    29     7    26   1
    30    10    27   1
    31    11    28   1
    32    12    29   1
    33    14    30   1
    34    15    31   1
    35    16    32   1
    36    17    33   1
    37    20    34   1
@<TRIPOS>SUBSTRUCTURE
     1  MOL      2

