@<TRIPOS>MOLECULE
4de1_ligand_015
    34    37
SMALL
GAST_HUCK
****
This file was generated by PARSER (from files_GN.cpp)

@<TRIPOS>ATOM
      1 O14        -2.9872   50.0601   13.7818 O.2         1 MOL      -0.3730
      2 C13        -3.7710   49.8511   12.8510 C.2         1 MOL       0.2323
      3 C15        -3.8906   48.5553   12.3352 C.ar        1 MOL       0.0570
      4 C20        -5.0283   48.1503   11.5771 C.ar        1 MOL      -0.0265
      5 C19        -5.0749   46.8548   11.0474 C.ar        1 MOL       0.0384
      6 C23        -6.0189   46.1733   10.2881 C.2         1 MOL       0.1104
      7 N22        -5.5167   44.9486   10.0561 N.pl3       1 MOL      -0.2442
      8 N21        -4.3474   44.8022   10.6084 N.2         1 MOL      -0.3319
      9 C18        -4.0410   45.9488   11.2331 C.ar        1 MOL      -0.0092
     10 C17        -2.9028   46.3116   11.9728 C.ar        1 MOL      -0.0531
     11 C16        -2.8424   47.6042   12.5306 C.ar        1 MOL      -0.0414
     12 N12        -4.5085   50.8522   12.3680 N.am        1 MOL      -0.2325
     13 C8         -4.4833   52.1888   12.6728 C.ar        1 MOL       0.0706
     14 C7         -5.7058   52.8890   12.5577 C.ar        1 MOL      -0.0238
     15 C9         -3.3143   52.9221   12.9901 C.ar        1 MOL      -0.0372
     16 C10        -3.3814   54.3086   13.2422 C.ar        1 MOL      -0.0702
     17 C11        -4.6111   54.9795   13.1611 C.ar        1 MOL      -0.0591
     18 C6         -5.7910   54.2768   12.8204 C.ar        1 MOL       0.0268
     19 C2         -7.0297   54.9395   12.7913 C.2         1 MOL       0.1822
     20 N3         -7.2813   56.2097   12.4537 N.pl3       1 MOL      -0.1510
     21 N4         -8.5190   56.4033   12.5500 N.2         1 MOL      -0.0636
     22 N5         -9.0712   55.3651   12.9304 N.2         1 MOL      -0.1383
     23 N1         -8.2357   54.4292   13.0706 N.2         1 MOL      -0.2073
     24 H1         -5.8177   48.7750   11.4202 H           1 MOL       0.0680
     25 H2         -6.9213   46.5291    9.9671 H           1 MOL       0.1370
     26 H3         -5.9714   44.2550    9.5483 H           1 MOL       0.2935
     27 H4         -2.1372   45.6488   12.1015 H           1 MOL       0.0630
     28 H5         -2.0041   47.8545   13.0610 H           1 MOL       0.0669
     29 H6         -5.1831   50.5908   11.7232 H           1 MOL       0.2252
     30 H7         -6.5499   52.3745   12.2928 H           1 MOL       0.0543
     31 H8         -2.4032   52.4561   13.0316 H           1 MOL       0.0536
     32 H9         -2.5283   54.8227   13.4793 H           1 MOL       0.0588
     33 H10        -4.6367   55.9795   13.3602 H           1 MOL       0.0535
     34 H11        -6.6251   56.8466   12.1205 H           1 MOL       0.2708
@<TRIPOS>BOND
     1     1     2   2
     2     2     3   1
     3     2    12  am
     4     3     4  ar
     5     3    11  ar
     6     4     5  ar
     7     5     6   2
     8     5     9  ar
     9     6     7   1
    10     7     8   1
    11     8     9   2
    12     9    10  ar
    13    10    11  ar
    14    12    13   1
    15    13    14  ar
    16    13    15  ar
    17    14    18  ar
    18    15    16  ar
    19    16    17  ar
    20    17    18  ar
    21    18    19   1
    22    19    20   1
    23    19    23   2
    24    20    21   1
    25    21    22   2
    26    22    23   1
    27     4    24   1
    28     6    25   1
    29     7    26   1
    30    10    27   1
    31    11    28   1
    32    12    29   1
    33    14    30   1
    34    15    31   1
    35    16    32   1
    36    17    33   1
    37    20    34   1
@<TRIPOS>SUBSTRUCTURE
     1  MOL      2

