@<TRIPOS>MOLECULE
4de1_ligand_067
    34    37
SMALL
GAST_HUCK
****
This file was generated by PARSER (from files_GN.cpp)

@<TRIPOS>ATOM
      1 O14        -5.6236   50.6635    9.9848 O.2         1 MOL      -0.3730
      2 C13        -6.3980   50.7829   10.9346 C.2         1 MOL       0.2323
      3 C15        -6.3970   51.9721   11.6518 C.ar        1 MOL       0.0570
      4 C20        -6.4419   51.9478   13.0753 C.ar        1 MOL      -0.0265
      5 C19        -6.3987   53.1610   13.7820 C.ar        1 MOL       0.0384
      6 C23        -6.3974   53.4734   15.1321 C.2         1 MOL       0.1104
      7 N22        -6.3515   54.8157   15.2139 N.pl3       1 MOL      -0.2442
      8 N21        -6.3201   55.3651   14.0365 N.2         1 MOL      -0.3319
      9 C18        -6.3420   54.3847   13.1204 C.ar        1 MOL      -0.0092
     10 C17        -6.3074   54.4366   11.7169 C.ar        1 MOL      -0.0531
     11 C16        -6.3251   53.2298   10.9889 C.ar        1 MOL      -0.0414
     12 N12        -7.2807   49.8296   11.2131 N.am        1 MOL      -0.2325
     13 C8         -7.3817   48.6214   10.5916 C.ar        1 MOL       0.0706
     14 C7         -6.3565   47.6638   10.7571 C.ar        1 MOL      -0.0238
     15 C9         -8.5002   48.3180    9.7906 C.ar        1 MOL      -0.0372
     16 C10        -8.5743   47.0775    9.1294 C.ar        1 MOL      -0.0702
     17 C11        -7.5401   46.1348    9.2757 C.ar        1 MOL      -0.0591
     18 C6         -6.4300   46.4030   10.1158 C.ar        1 MOL       0.0268
     19 C2         -5.4299   45.4292   10.3073 C.2         1 MOL       0.1822
     20 N3         -4.7869   45.1216   11.4390 N.pl3       1 MOL      -0.1510
     21 N4         -3.9879   44.1858   11.2016 N.2         1 MOL      -0.0636
     22 N5         -4.0667   43.8754   10.0096 N.2         1 MOL      -0.1383
     23 N1         -4.9242   44.5717    9.4045 N.2         1 MOL      -0.2073
     24 H1         -6.4738   51.0673   13.5948 H           1 MOL       0.0680
     25 H2         -6.4268   52.8184   15.9156 H           1 MOL       0.1370
     26 H3         -6.3466   55.3138   16.0466 H           1 MOL       0.2935
     27 H4         -6.2672   55.3402   11.2317 H           1 MOL       0.0630
     28 H5         -6.3071   53.2865    9.9685 H           1 MOL       0.0669
     29 H6         -7.9579   50.0353   11.8722 H           1 MOL       0.2252
     30 H7         -5.5566   47.8769   11.3548 H           1 MOL       0.0543
     31 H8         -9.2482   48.9980    9.6698 H           1 MOL       0.0536
     32 H9         -9.3854   46.8681    8.5382 H           1 MOL       0.0588
     33 H10        -7.6320   45.2384    8.7891 H           1 MOL       0.0535
     34 H11        -4.9398   45.5203   12.3120 H           1 MOL       0.2708
@<TRIPOS>BOND
     1     1     2   2
     2     2     3   1
     3     2    12  am
     4     3     4  ar
     5     3    11  ar
     6     4     5  ar
     7     5     6   2
     8     5     9  ar
     9     6     7   1
    10     7     8   1
    11     8     9   2
    12     9    10  ar
    13    10    11  ar
    14    12    13   1
    15    13    14  ar
    16    13    15  ar
    17    14    18  ar
    18    15    16  ar
    19    16    17  ar
    20    17    18  ar
    21    18    19   1
    22    19    20   1
    23    19    23   2
    24    20    21   1
    25    21    22   2
    26    22    23   1
    27     4    24   1
    28     6    25   1
    29     7    26   1
    30    10    27   1
    31    11    28   1
    32    12    29   1
    33    14    30   1
    34    15    31   1
    35    16    32   1
    36    17    33   1
    37    20    34   1
@<TRIPOS>SUBSTRUCTURE
     1  MOL      2

