@<TRIPOS>MOLECULE
4de1_ligand_050
    34    37
SMALL
GAST_HUCK
****
This file was generated by PARSER (from files_GN.cpp)

@<TRIPOS>ATOM
      1 O14        -7.3828   51.6574   10.4819 O.2         1 MOL      -0.3730
      2 C13        -7.3302   52.2616   11.5446 C.2         1 MOL       0.2323
      3 C15        -6.1013   52.5355   12.1231 C.ar        1 MOL       0.0570
      4 C20        -4.9719   52.7917   11.2966 C.ar        1 MOL      -0.0265
      5 C19        -3.7519   53.1405   11.8969 C.ar        1 MOL       0.0384
      6 C23        -2.5182   53.4751   11.3741 C.2         1 MOL       0.1104
      7 N22        -1.7184   53.7336   12.4269 N.pl3       1 MOL      -0.2442
      8 N21        -2.3496   53.5740   13.5509 N.2         1 MOL      -0.3319
      9 C18        -3.6188   53.2163   13.2768 C.ar        1 MOL      -0.0092
     10 C17        -4.7068   52.9451   14.1259 C.ar        1 MOL      -0.0531
     11 C16        -5.9449   52.6116   13.5369 C.ar        1 MOL      -0.0414
     12 N12        -8.4372   52.7306   12.1104 N.am        1 MOL      -0.2325
     13 C8         -9.6650   52.6903   11.5564 C.ar        1 MOL       0.0706
     14 C7        -10.5026   51.5754   11.7640 C.ar        1 MOL      -0.0238
     15 C9        -10.1218   53.7926   10.8069 C.ar        1 MOL      -0.0372
     16 C10       -11.4196   53.7838   10.2692 C.ar        1 MOL      -0.0702
     17 C11       -12.2739   52.6920   10.5190 C.ar        1 MOL      -0.0591
     18 C6        -11.8247   51.5783   11.2657 C.ar        1 MOL       0.0268
     19 C2        -12.6993   50.5022   11.5444 C.2         1 MOL       0.1822
     20 N3        -12.4366   49.1979   11.5683 N.pl3       1 MOL      -0.1510
     21 N4        -13.5051   48.6016   11.8546 N.2         1 MOL      -0.0636
     22 N5        -14.4055   49.4124   12.0222 N.2         1 MOL      -0.1383
     23 N1        -13.9919   50.5934   11.8498 N.2         1 MOL      -0.2073
     24 H1         -5.0389   52.7693   10.2764 H           1 MOL       0.0680
     25 H2         -2.2612   53.5257   10.3888 H           1 MOL       0.1370
     26 H3         -0.7928   54.0183   12.3461 H           1 MOL       0.2935
     27 H4         -4.6120   52.9939   15.1365 H           1 MOL       0.0630
     28 H5         -6.7365   52.4174   14.1575 H           1 MOL       0.0669
     29 H6         -8.3355   53.2674   12.9187 H           1 MOL       0.2252
     30 H7        -10.1528   50.7910   12.3176 H           1 MOL       0.0543
     31 H8         -9.5122   54.6022   10.6372 H           1 MOL       0.0536
     32 H9        -11.7555   54.5707    9.7104 H           1 MOL       0.0588
     33 H10       -13.2251   52.7097   10.1383 H           1 MOL       0.0535
     34 H11       -11.5843   48.7739   11.3842 H           1 MOL       0.2708
@<TRIPOS>BOND
     1     1     2   2
     2     2     3   1
     3     2    12  am
     4     3     4  ar
     5     3    11  ar
     6     4     5  ar
     7     5     6   2
     8     5     9  ar
     9     6     7   1
    10     7     8   1
    11     8     9   2
    12     9    10  ar
    13    10    11  ar
    14    12    13   1
    15    13    14  ar
    16    13    15  ar
    17    14    18  ar
    18    15    16  ar
    19    16    17  ar
    20    17    18  ar
    21    18    19   1
    22    19    20   1
    23    19    23   2
    24    20    21   1
    25    21    22   2
    26    22    23   1
    27     4    24   1
    28     6    25   1
    29     7    26   1
    30    10    27   1
    31    11    28   1
    32    12    29   1
    33    14    30   1
    34    15    31   1
    35    16    32   1
    36    17    33   1
    37    20    34   1
@<TRIPOS>SUBSTRUCTURE
     1  MOL      2

