@<TRIPOS>MOLECULE
4de1_ligand_069
    34    37
SMALL
GAST_HUCK
****
This file was generated by PARSER (from files_GN.cpp)

@<TRIPOS>ATOM
      1 O14        -5.4662   49.5903   12.3481 O.2         1 MOL      -0.3730
      2 C13        -4.4609   49.7170   11.6594 C.2         1 MOL       0.2323
      3 C15        -3.4102   48.7993   11.8256 C.ar        1 MOL       0.0570
      4 C20        -3.0831   48.3054   13.1214 C.ar        1 MOL      -0.0265
      5 C19        -2.0365   47.3795   13.2792 C.ar        1 MOL       0.0384
      6 C23        -1.4990   46.7357   14.3812 C.2         1 MOL       0.1104
      7 N22        -0.4839   45.9786   13.9316 N.pl3       1 MOL      -0.2442
      8 N21        -0.3516   46.0887   12.6419 N.2         1 MOL      -0.3319
      9 C18        -1.2918   46.9407   12.1933 C.ar        1 MOL      -0.0092
     10 C17        -1.5768   47.4052   10.9015 C.ar        1 MOL      -0.0531
     11 C16        -2.6328   48.3263   10.7255 C.ar        1 MOL      -0.0414
     12 N12        -4.3996   50.6870   10.7488 N.am        1 MOL      -0.2325
     13 C8         -5.2680   51.7079   10.4495 C.ar        1 MOL       0.0706
     14 C7         -5.8937   52.5599   11.3952 C.ar        1 MOL      -0.0238
     15 C9         -5.4875   51.9630    9.0774 C.ar        1 MOL      -0.0372
     16 C10        -6.3198   53.0159    8.6611 C.ar        1 MOL      -0.0702
     17 C11        -6.9341   53.8469    9.6127 C.ar        1 MOL      -0.0591
     18 C6         -6.7273   53.6329   10.9951 C.ar        1 MOL       0.0268
     19 C2         -7.3317   54.4794   11.9563 C.2         1 MOL       0.1822
     20 N3         -7.7914   55.7202   11.7830 N.pl3       1 MOL      -0.1510
     21 N4         -8.2492   56.1237   12.8822 N.2         1 MOL      -0.0636
     22 N5         -8.1257   55.2418   13.7267 N.2         1 MOL      -0.1383
     23 N1         -7.5693   54.2187   13.2472 N.2         1 MOL      -0.2073
     24 H1         -3.5882   48.6162   13.9562 H           1 MOL       0.0680
     25 H2         -1.7971   46.8341   15.3544 H           1 MOL       0.1370
     26 H3          0.0937   45.4508   14.5056 H           1 MOL       0.2935
     27 H4         -1.0308   47.0797   10.1038 H           1 MOL       0.0630
     28 H5         -2.8337   48.6337    9.7729 H           1 MOL       0.0669
     29 H6         -3.6081   50.6697   10.1900 H           1 MOL       0.2252
     30 H7         -5.7022   52.4359   12.3908 H           1 MOL       0.0543
     31 H8         -5.0424   51.3793    8.3659 H           1 MOL       0.0536
     32 H9         -6.4761   53.1794    7.6636 H           1 MOL       0.0588
     33 H10        -7.5356   54.6062    9.2807 H           1 MOL       0.0535
     34 H11        -7.7375   56.2414   10.9661 H           1 MOL       0.2708
@<TRIPOS>BOND
     1     1     2   2
     2     2     3   1
     3     2    12  am
     4     3     4  ar
     5     3    11  ar
     6     4     5  ar
     7     5     6   2
     8     5     9  ar
     9     6     7   1
    10     7     8   1
    11     8     9   2
    12     9    10  ar
    13    10    11  ar
    14    12    13   1
    15    13    14  ar
    16    13    15  ar
    17    14    18  ar
    18    15    16  ar
    19    16    17  ar
    20    17    18  ar
    21    18    19   1
    22    19    20   1
    23    19    23   2
    24    20    21   1
    25    21    22   2
    26    22    23   1
    27     4    24   1
    28     6    25   1
    29     7    26   1
    30    10    27   1
    31    11    28   1
    32    12    29   1
    33    14    30   1
    34    15    31   1
    35    16    32   1
    36    17    33   1
    37    20    34   1
@<TRIPOS>SUBSTRUCTURE
     1  MOL      2

