@<TRIPOS>MOLECULE
4de1_ligand_073
    34    37
SMALL
GAST_HUCK
****
This file was generated by PARSER (from files_GN.cpp)

@<TRIPOS>ATOM
      1 O14        -3.2848   49.3461   10.4760 O.2         1 MOL      -0.3730
      2 C13        -2.7595   49.1341   11.5621 C.2         1 MOL       0.2323
      3 C15        -1.7060   48.2356   11.6213 C.ar        1 MOL       0.0570
      4 C20        -1.7375   47.1484   12.5342 C.ar        1 MOL      -0.0265
      5 C19        -0.6642   46.2396   12.5517 C.ar        1 MOL       0.0384
      6 C23        -0.3947   45.1002   13.2923 C.2         1 MOL       0.1104
      7 N22         0.8039   44.6475   12.8844 N.pl3       1 MOL      -0.2442
      8 N21         1.2973   45.3980   11.9435 N.2         1 MOL      -0.3319
      9 C18         0.4301   46.3974   11.7079 C.ar        1 MOL      -0.0092
     10 C17         0.4914   47.4669   10.8005 C.ar        1 MOL      -0.0531
     11 C16        -0.5917   48.3700   10.7475 C.ar        1 MOL      -0.0414
     12 N12        -3.1115   49.8111   12.6487 N.am        1 MOL      -0.2325
     13 C8         -4.1398   50.7027   12.7371 C.ar        1 MOL       0.0706
     14 C7         -3.8743   52.0786   12.9256 C.ar        1 MOL      -0.0238
     15 C9         -5.4769   50.2497   12.7435 C.ar        1 MOL      -0.0372
     16 C10        -6.5308   51.1599   12.9321 C.ar        1 MOL      -0.0702
     17 C11        -6.2581   52.5280   13.1008 C.ar        1 MOL      -0.0591
     18 C6         -4.9286   53.0122   13.0950 C.ar        1 MOL       0.0268
     19 C2         -4.6876   54.4000   13.2709 C.2         1 MOL       0.1822
     20 N3         -3.5305   55.0621   13.2195 N.pl3       1 MOL      -0.1510
     21 N4         -3.7658   56.2839   13.4101 N.2         1 MOL      -0.0636
     22 N5         -4.9672   56.4532   13.5880 N.2         1 MOL      -0.1383
     23 N1         -5.5917   55.3579   13.5165 N.2         1 MOL      -0.2073
     24 H1         -2.5373   46.9952   13.1544 H           1 MOL       0.0680
     25 H2         -0.9868   44.6776   14.0104 H           1 MOL       0.1370
     26 H3          1.2417   43.8570   13.2388 H           1 MOL       0.2935
     27 H4          1.3005   47.5830   10.1860 H           1 MOL       0.0630
     28 H5         -0.5469   49.1440   10.0800 H           1 MOL       0.0669
     29 H6         -2.5438   49.7140   13.4329 H           1 MOL       0.2252
     30 H7         -2.9021   52.3969   12.9247 H           1 MOL       0.0543
     31 H8         -5.6898   49.2534   12.6379 H           1 MOL       0.0536
     32 H9         -7.4975   50.8274   12.9570 H           1 MOL       0.0588
     33 H10        -7.0467   53.1655   13.2396 H           1 MOL       0.0535
     34 H11        -2.6582   54.6789   13.0397 H           1 MOL       0.2708
@<TRIPOS>BOND
     1     1     2   2
     2     2     3   1
     3     2    12  am
     4     3     4  ar
     5     3    11  ar
     6     4     5  ar
     7     5     6   2
     8     5     9  ar
     9     6     7   1
    10     7     8   1
    11     8     9   2
    12     9    10  ar
    13    10    11  ar
    14    12    13   1
    15    13    14  ar
    16    13    15  ar
    17    14    18  ar
    18    15    16  ar
    19    16    17  ar
    20    17    18  ar
    21    18    19   1
    22    19    20   1
    23    19    23   2
    24    20    21   1
    25    21    22   2
    26    22    23   1
    27     4    24   1
    28     6    25   1
    29     7    26   1
    30    10    27   1
    31    11    28   1
    32    12    29   1
    33    14    30   1
    34    15    31   1
    35    16    32   1
    36    17    33   1
    37    20    34   1
@<TRIPOS>SUBSTRUCTURE
     1  MOL      2

