@<TRIPOS>MOLECULE
4de1_ligand_054
    34    37
SMALL
GAST_HUCK
****
This file was generated by PARSER (from files_GN.cpp)

@<TRIPOS>ATOM
      1 O14        -0.0001   50.9500    8.5060 O.2         1 MOL      -0.3730
      2 C13        -1.1983   51.1165    8.7129 C.2         1 MOL       0.2323
      3 C15        -1.6263   51.4923    9.9872 C.ar        1 MOL       0.0570
      4 C20        -2.8172   52.2483   10.1636 C.ar        1 MOL      -0.0265
      5 C19        -3.1849   52.6826   11.4473 C.ar        1 MOL       0.0384
      6 C23        -4.2201   53.4585   11.9278 C.2         1 MOL       0.1104
      7 N22        -4.0460   53.5837   13.2511 N.pl3       1 MOL      -0.2442
      8 N21        -2.9804   52.9332   13.6400 N.2         1 MOL      -0.3319
      9 C18        -2.4223   52.3606   12.5637 C.ar        1 MOL      -0.0092
     10 C17        -1.2714   51.5705   12.4387 C.ar        1 MOL      -0.0531
     11 C16        -0.8678   51.1636   11.1480 C.ar        1 MOL      -0.0414
     12 N12        -2.0739   50.8944    7.7352 N.am        1 MOL      -0.2325
     13 C8         -1.7718   50.6027    6.4351 C.ar        1 MOL       0.0706
     14 C7         -2.1583   49.3556    5.8987 C.ar        1 MOL      -0.0238
     15 C9         -1.1604   51.5583    5.5938 C.ar        1 MOL      -0.0372
     16 C10        -0.9751   51.2875    4.2295 C.ar        1 MOL      -0.0702
     17 C11        -1.3904   50.0569    3.6916 C.ar        1 MOL      -0.0591
     18 C6         -1.9609   49.0694    4.5271 C.ar        1 MOL       0.0268
     19 C2         -2.2966   47.8025    4.0059 C.2         1 MOL       0.1822
     20 N3         -2.2584   46.6241    4.6411 N.pl3       1 MOL      -0.1510
     21 N4         -2.5979   45.7268    3.8328 N.2         1 MOL      -0.0636
     22 N5         -2.8517   46.2401    2.7358 N.2         1 MOL      -0.1383
     23 N1         -2.6730   47.4896    2.7594 N.2         1 MOL      -0.2073
     24 H1         -3.3876   52.5419    9.3653 H           1 MOL       0.0680
     25 H2         -4.9721   53.8815   11.3754 H           1 MOL       0.1370
     26 H3         -4.6183   54.0909   13.8473 H           1 MOL       0.2935
     27 H4         -0.7298   51.3123   13.2682 H           1 MOL       0.0630
     28 H5         -0.0140   50.6111   11.0633 H           1 MOL       0.0669
     29 H6         -3.0215   50.9043    7.9754 H           1 MOL       0.2252
     30 H7         -2.5927   48.6583    6.5133 H           1 MOL       0.0543
     31 H8         -0.8722   52.4625    5.9741 H           1 MOL       0.0536
     32 H9         -0.5312   51.9816    3.6332 H           1 MOL       0.0588
     33 H10        -1.2373   49.8778    2.6939 H           1 MOL       0.0535
     34 H11        -1.9749   46.4830    5.5632 H           1 MOL       0.2708
@<TRIPOS>BOND
     1     1     2   2
     2     2     3   1
     3     2    12  am
     4     3     4  ar
     5     3    11  ar
     6     4     5  ar
     7     5     6   2
     8     5     9  ar
     9     6     7   1
    10     7     8   1
    11     8     9   2
    12     9    10  ar
    13    10    11  ar
    14    12    13   1
    15    13    14  ar
    16    13    15  ar
    17    14    18  ar
    18    15    16  ar
    19    16    17  ar
    20    17    18  ar
    21    18    19   1
    22    19    20   1
    23    19    23   2
    24    20    21   1
    25    21    22   2
    26    22    23   1
    27     4    24   1
    28     6    25   1
    29     7    26   1
    30    10    27   1
    31    11    28   1
    32    12    29   1
    33    14    30   1
    34    15    31   1
    35    16    32   1
    36    17    33   1
    37    20    34   1
@<TRIPOS>SUBSTRUCTURE
     1  MOL      2

