@<TRIPOS>MOLECULE
4de1_ligand_026
    34    37
SMALL
GAST_HUCK
****
This file was generated by PARSER (from files_GN.cpp)

@<TRIPOS>ATOM
      1 O14        -6.0574   49.8875   12.7027 O.2         1 MOL      -0.3730
      2 C13        -4.8674   50.1219   12.9790 C.2         1 MOL       0.2323
      3 C15        -3.9591   49.0870   12.9745 C.ar        1 MOL       0.0570
      4 C20        -3.1541   48.7792   14.1233 C.ar        1 MOL      -0.0265
      5 C19        -2.2729   47.6702   14.0755 C.ar        1 MOL       0.0384
      6 C23        -1.4040   47.1001   14.9874 C.2         1 MOL       0.1104
      7 N22        -0.8133   46.0570   14.3655 N.pl3       1 MOL      -0.2442
      8 N21        -1.2504   45.9240   13.1504 N.2         1 MOL      -0.3319
      9 C18        -2.1587   46.8937   12.9274 C.ar        1 MOL      -0.0092
     10 C17        -2.9263   47.1651   11.7926 C.ar        1 MOL      -0.0531
     11 C16        -3.8205   48.2511   11.8226 C.ar        1 MOL      -0.0414
     12 N12        -4.5216   51.3363   13.4328 N.am        1 MOL      -0.2325
     13 C8         -5.3107   52.4551   13.5071 C.ar        1 MOL       0.0706
     14 C7         -6.0624   52.9828   12.4248 C.ar        1 MOL      -0.0238
     15 C9         -5.2296   53.2155   14.7032 C.ar        1 MOL      -0.0372
     16 C10        -5.9023   54.4459   14.8202 C.ar        1 MOL      -0.0702
     17 C11        -6.6258   54.9661   13.7298 C.ar        1 MOL      -0.0591
     18 C6         -6.7064   54.2483   12.5108 C.ar        1 MOL       0.0268
     19 C2         -7.4296   54.7592   11.4058 C.2         1 MOL       0.1822
     20 N3         -7.3760   55.9766   10.8758 N.pl3       1 MOL      -0.1510
     21 N4         -8.1110   56.0019    9.8617 N.2         1 MOL      -0.0636
     22 N5         -8.6715   54.9039    9.7289 N.2         1 MOL      -0.1383
     23 N1         -8.2944   54.1015   10.6175 N.2         1 MOL      -0.2073
     24 H1         -3.2506   49.3181   14.9812 H           1 MOL       0.0680
     25 H2         -1.2377   47.3913   15.9492 H           1 MOL       0.1370
     26 H3         -0.1443   45.4828   14.7874 H           1 MOL       0.2935
     27 H4         -2.8439   46.5727   10.9627 H           1 MOL       0.0630
     28 H5         -4.3788   48.4435   10.9870 H           1 MOL       0.0669
     29 H6         -3.6100   51.4029   13.7991 H           1 MOL       0.2252
     30 H7         -6.0985   52.4469   11.5504 H           1 MOL       0.0543
     31 H8         -4.7066   52.8510   15.5077 H           1 MOL       0.0536
     32 H9         -5.8828   54.9663   15.7039 H           1 MOL       0.0588
     33 H10        -7.0915   55.8758   13.8431 H           1 MOL       0.0535
     34 H11        -6.7393   56.6679   11.1146 H           1 MOL       0.2708
@<TRIPOS>BOND
     1     1     2   2
     2     2     3   1
     3     2    12  am
     4     3     4  ar
     5     3    11  ar
     6     4     5  ar
     7     5     6   2
     8     5     9  ar
     9     6     7   1
    10     7     8   1
    11     8     9   2
    12     9    10  ar
    13    10    11  ar
    14    12    13   1
    15    13    14  ar
    16    13    15  ar
    17    14    18  ar
    18    15    16  ar
    19    16    17  ar
    20    17    18  ar
    21    18    19   1
    22    19    20   1
    23    19    23   2
    24    20    21   1
    25    21    22   2
    26    22    23   1
    27     4    24   1
    28     6    25   1
    29     7    26   1
    30    10    27   1
    31    11    28   1
    32    12    29   1
    33    14    30   1
    34    15    31   1
    35    16    32   1
    36    17    33   1
    37    20    34   1
@<TRIPOS>SUBSTRUCTURE
     1  MOL      2

