@<TRIPOS>MOLECULE
4de1_ligand_030
    34    37
SMALL
GAST_HUCK
****
This file was generated by PARSER (from files_GN.cpp)

@<TRIPOS>ATOM
      1 O14        -2.4387   49.0215   12.5750 O.2         1 MOL      -0.3730
      2 C13        -1.3439   48.9135   12.0316 C.2         1 MOL       0.2323
      3 C15        -0.7128   50.0639   11.5322 C.ar        1 MOL       0.0570
      4 C20         0.4850   49.9821   10.7626 C.ar        1 MOL      -0.0265
      5 C19         1.0500   51.1542   10.2313 C.ar        1 MOL       0.0384
      6 C23         2.1768   51.3945    9.4614 C.2         1 MOL       0.1104
      7 N22         2.2084   52.7197    9.2310 N.pl3       1 MOL      -0.2442
      8 N21         1.2130   53.3256    9.8007 N.2         1 MOL      -0.3319
      9 C18         0.4716   52.3976   10.4331 C.ar        1 MOL      -0.0092
     10 C17        -0.6964   52.5255   11.1990 C.ar        1 MOL      -0.0531
     11 C16        -1.2768   51.3602   11.7400 C.ar        1 MOL      -0.0414
     12 N12        -0.7712   47.7097   11.9757 N.am        1 MOL      -0.2325
     13 C8         -1.2701   46.5138   12.4275 C.ar        1 MOL       0.0706
     14 C7         -2.5932   46.0919   12.1729 C.ar        1 MOL      -0.0238
     15 C9         -0.4085   45.6518   13.1426 C.ar        1 MOL      -0.0372
     16 C10        -0.8854   44.4296   13.6506 C.ar        1 MOL      -0.0702
     17 C11        -2.2178   44.0408   13.4200 C.ar        1 MOL      -0.0591
     18 C6         -3.0857   44.8580   12.6602 C.ar        1 MOL       0.0268
     19 C2         -4.4207   44.4530   12.3826 C.2         1 MOL       0.1822
     20 N3         -5.1360   43.5088   12.9918 N.pl3       1 MOL      -0.1510
     21 N4         -6.2652   43.4646   12.4399 N.2         1 MOL      -0.0636
     22 N5         -6.3257   44.2937   11.5490 N.2         1 MOL      -0.1383
     23 N1         -5.2414   44.9401   11.4498 N.2         1 MOL      -0.2073
     24 H1          0.9378   49.0878   10.5640 H           1 MOL       0.0680
     25 H2          2.8466   50.7032    9.1283 H           1 MOL       0.1370
     26 H3          2.9026   53.1531    8.7106 H           1 MOL       0.2935
     27 H4         -1.1200   53.4438   11.3523 H           1 MOL       0.0630
     28 H5         -2.1352   51.4737   12.2821 H           1 MOL       0.0669
     29 H6          0.1543   47.6955   11.7005 H           1 MOL       0.2252
     30 H7         -3.2038   46.6989   11.6156 H           1 MOL       0.0543
     31 H8          0.5620   45.9130   13.3143 H           1 MOL       0.0536
     32 H9         -0.2604   43.8206   14.1841 H           1 MOL       0.0588
     33 H10        -2.5364   43.1434   13.7961 H           1 MOL       0.0535
     34 H11        -4.8509   42.9636   13.7374 H           1 MOL       0.2708
@<TRIPOS>BOND
     1     1     2   2
     2     2     3   1
     3     2    12  am
     4     3     4  ar
     5     3    11  ar
     6     4     5  ar
     7     5     6   2
     8     5     9  ar
     9     6     7   1
    10     7     8   1
    11     8     9   2
    12     9    10  ar
    13    10    11  ar
    14    12    13   1
    15    13    14  ar
    16    13    15  ar
    17    14    18  ar
    18    15    16  ar
    19    16    17  ar
    20    17    18  ar
    21    18    19   1
    22    19    20   1
    23    19    23   2
    24    20    21   1
    25    21    22   2
    26    22    23   1
    27     4    24   1
    28     6    25   1
    29     7    26   1
    30    10    27   1
    31    11    28   1
    32    12    29   1
    33    14    30   1
    34    15    31   1
    35    16    32   1
    36    17    33   1
    37    20    34   1
@<TRIPOS>SUBSTRUCTURE
     1  MOL      2

