@<TRIPOS>MOLECULE
4de1_ligand_058
    34    37
SMALL
GAST_HUCK
****
This file was generated by PARSER (from files_GN.cpp)

@<TRIPOS>ATOM
      1 O14        -7.7023   50.7520    8.7403 O.2         1 MOL      -0.3730
      2 C13        -6.5373   50.9011    8.3717 C.2         1 MOL       0.2323
      3 C15        -5.7855   49.7627    8.0416 C.ar        1 MOL       0.0570
      4 C20        -4.3617   49.8170    8.0058 C.ar        1 MOL      -0.0265
      5 C19        -3.6340   48.6513    7.7282 C.ar        1 MOL       0.0384
      6 C23        -2.2764   48.3820    7.6547 C.2         1 MOL       0.1104
      7 N22        -2.1561   47.0721    7.3773 N.pl3       1 MOL      -0.2442
      8 N21        -3.3240   46.4988    7.2633 N.2         1 MOL      -0.3319
      9 C18        -4.2625   47.4358    7.4698 C.ar        1 MOL      -0.0092
     10 C17        -5.6639   47.3490    7.4786 C.ar        1 MOL      -0.0531
     11 C16        -6.4111   48.5120    7.7788 C.ar        1 MOL      -0.0414
     12 N12        -6.0239   52.1222    8.2395 N.am        1 MOL      -0.2325
     13 C8         -6.6049   53.3207    8.6008 C.ar        1 MOL       0.0706
     14 C7         -7.0105   53.5694    9.9358 C.ar        1 MOL      -0.0238
     15 C9         -6.6177   54.3949    7.6820 C.ar        1 MOL      -0.0372
     16 C10        -7.0847   55.6684    8.0711 C.ar        1 MOL      -0.0702
     17 C11        -7.4839   55.8983    9.3993 C.ar        1 MOL      -0.0591
     18 C6         -7.4189   54.8557   10.3509 C.ar        1 MOL       0.0268
     19 C2         -7.7453   55.1248   11.6913 C.2         1 MOL       0.1822
     20 N3         -7.1388   56.0165   12.4808 N.pl3       1 MOL      -0.1510
     21 N4         -7.6573   55.9288   13.6186 N.2         1 MOL      -0.0636
     22 N5         -8.5690   55.0916   13.5988 N.2         1 MOL      -0.1383
     23 N1         -8.6630   54.5347   12.4701 N.2         1 MOL      -0.2073
     24 H1         -3.8525   50.6804    8.2051 H           1 MOL       0.0680
     25 H2         -1.5092   49.0420    7.8080 H           1 MOL       0.1370
     26 H3         -1.3098   46.5987    7.2894 H           1 MOL       0.2935
     27 H4         -6.1294   46.4606    7.2776 H           1 MOL       0.0630
     28 H5         -7.4356   48.4319    7.7710 H           1 MOL       0.0669
     29 H6         -5.1441   52.1741    7.8157 H           1 MOL       0.2252
     30 H7         -6.9262   52.8176   10.6224 H           1 MOL       0.0543
     31 H8         -6.3137   54.2636    6.7127 H           1 MOL       0.0536
     32 H9         -7.1257   56.4385    7.3937 H           1 MOL       0.0588
     33 H10        -7.7834   56.8377    9.6755 H           1 MOL       0.0535
     34 H11        -6.3611   56.5678   12.2493 H           1 MOL       0.2708
@<TRIPOS>BOND
     1     1     2   2
     2     2     3   1
     3     2    12  am
     4     3     4  ar
     5     3    11  ar
     6     4     5  ar
     7     5     6   2
     8     5     9  ar
     9     6     7   1
    10     7     8   1
    11     8     9   2
    12     9    10  ar
    13    10    11  ar
    14    12    13   1
    15    13    14  ar
    16    13    15  ar
    17    14    18  ar
    18    15    16  ar
    19    16    17  ar
    20    17    18  ar
    21    18    19   1
    22    19    20   1
    23    19    23   2
    24    20    21   1
    25    21    22   2
    26    22    23   1
    27     4    24   1
    28     6    25   1
    29     7    26   1
    30    10    27   1
    31    11    28   1
    32    12    29   1
    33    14    30   1
    34    15    31   1
    35    16    32   1
    36    17    33   1
    37    20    34   1
@<TRIPOS>SUBSTRUCTURE
     1  MOL      2

