@<TRIPOS>MOLECULE
4de1_ligand_038
    34    37
SMALL
GAST_HUCK
****
This file was generated by PARSER (from files_GN.cpp)

@<TRIPOS>ATOM
      1 O14        -6.0837   47.5412    9.9663 O.2         1 MOL      -0.3730
      2 C13        -5.7978   48.2181   10.9474 C.2         1 MOL       0.2323
      3 C15        -6.7252   49.1535   11.4325 C.ar        1 MOL       0.0570
      4 C20        -8.0763   49.1391   10.9941 C.ar        1 MOL      -0.0265
      5 C19        -8.9800   50.0897   11.5014 C.ar        1 MOL       0.0384
      6 C23       -10.3331   50.3209   11.3068 C.2         1 MOL       0.1104
      7 N22       -10.6658   51.3697   12.0687 N.pl3       1 MOL      -0.2442
      8 N21        -9.6379   51.8138   12.7422 N.2         1 MOL      -0.3319
      9 C18        -8.5810   51.0514   12.4187 C.ar        1 MOL      -0.0092
     10 C17        -7.2493   51.1088   12.8624 C.ar        1 MOL      -0.0531
     11 C16        -6.3361   50.1559   12.3677 C.ar        1 MOL      -0.0414
     12 N12        -4.6458   48.0227   11.5794 N.am        1 MOL      -0.2325
     13 C8         -3.5360   47.2902   11.2243 C.ar        1 MOL       0.0706
     14 C7         -3.2362   46.8536    9.9090 C.ar        1 MOL      -0.0238
     15 C9         -2.5754   47.0576   12.2378 C.ar        1 MOL      -0.0372
     16 C10        -1.3579   46.4204   11.9504 C.ar        1 MOL      -0.0702
     17 C11        -1.0686   46.0132   10.6410 C.ar        1 MOL      -0.0591
     18 C6         -2.0046   46.2290    9.6090 C.ar        1 MOL       0.0268
     19 C2         -1.6653   45.9210    8.2874 C.2         1 MOL       0.1822
     20 N3         -2.1506   44.9438    7.5175 N.pl3       1 MOL      -0.1510
     21 N4         -1.6295   45.0530    6.3831 N.2         1 MOL      -0.0636
     22 N5         -0.8722   46.0350    6.3654 N.2         1 MOL      -0.1383
     23 N1         -0.8339   46.6005    7.4872 N.2         1 MOL      -0.2073
     24 H1         -8.4186   48.4456   10.3231 H           1 MOL       0.0680
     25 H2        -10.9632   49.8012   10.6922 H           1 MOL       0.1370
     26 H3        -11.5583   51.7451   12.1309 H           1 MOL       0.2935
     27 H4         -6.9570   51.8291   13.5271 H           1 MOL       0.0630
     28 H5         -5.3691   50.2204   12.6958 H           1 MOL       0.0669
     29 H6         -4.5737   48.4656   12.4386 H           1 MOL       0.2252
     30 H7         -3.8811   47.0773    9.1420 H           1 MOL       0.0543
     31 H8         -2.7534   47.3711   13.1917 H           1 MOL       0.0536
     32 H9         -0.6812   46.2630   12.6960 H           1 MOL       0.0588
     33 H10        -0.1702   45.5588   10.4442 H           1 MOL       0.0535
     34 H11        -2.7919   44.2646    7.7954 H           1 MOL       0.2708
@<TRIPOS>BOND
     1     1     2   2
     2     2     3   1
     3     2    12  am
     4     3     4  ar
     5     3    11  ar
     6     4     5  ar
     7     5     6   2
     8     5     9  ar
     9     6     7   1
    10     7     8   1
    11     8     9   2
    12     9    10  ar
    13    10    11  ar
    14    12    13   1
    15    13    14  ar
    16    13    15  ar
    17    14    18  ar
    18    15    16  ar
    19    16    17  ar
    20    17    18  ar
    21    18    19   1
    22    19    20   1
    23    19    23   2
    24    20    21   1
    25    21    22   2
    26    22    23   1
    27     4    24   1
    28     6    25   1
    29     7    26   1
    30    10    27   1
    31    11    28   1
    32    12    29   1
    33    14    30   1
    34    15    31   1
    35    16    32   1
    36    17    33   1
    37    20    34   1
@<TRIPOS>SUBSTRUCTURE
     1  MOL      2

