@<TRIPOS>MOLECULE
4de1_ligand_039
    34    37
SMALL
GAST_HUCK
****
This file was generated by PARSER (from files_GN.cpp)

@<TRIPOS>ATOM
      1 O14        -2.2453   49.2737   10.3693 O.2         1 MOL      -0.3730
      2 C13        -1.3899   49.2114   11.2419 C.2         1 MOL       0.2323
      3 C15        -0.6136   48.0787   11.3056 C.ar        1 MOL       0.0570
      4 C20         0.6232   48.0389   10.6158 C.ar        1 MOL      -0.0265
      5 C19         1.3851   46.8588   10.6750 C.ar        1 MOL       0.0384
      6 C23         2.6038   46.4891   10.1278 C.2         1 MOL       0.1104
      7 N22         2.8338   45.2241   10.5205 N.pl3       1 MOL      -0.2442
      8 N21         1.8669   44.7744   11.2650 N.2         1 MOL      -0.3319
      9 C18         0.9501   45.7469   11.3915 C.ar        1 MOL      -0.0092
     10 C17        -0.2700   45.7726   12.0876 C.ar        1 MOL      -0.0531
     11 C16        -1.0508   46.9480   12.0456 C.ar        1 MOL      -0.0414
     12 N12        -1.2563   50.1277   12.1880 N.am        1 MOL      -0.2325
     13 C8         -2.0124   51.2458   12.3081 C.ar        1 MOL       0.0706
     14 C7         -3.1377   51.2461   13.1561 C.ar        1 MOL      -0.0238
     15 C9         -1.6311   52.4338   11.6526 C.ar        1 MOL      -0.0372
     16 C10        -2.3687   53.6133   11.8484 C.ar        1 MOL      -0.0702
     17 C11        -3.4643   53.6205   12.7314 C.ar        1 MOL      -0.0591
     18 C6         -3.8734   52.4312   13.3761 C.ar        1 MOL       0.0268
     19 C2         -4.9878   52.4233   14.2326 C.2         1 MOL       0.1822
     20 N3         -5.3240   53.3187   15.1568 N.pl3       1 MOL      -0.1510
     21 N4         -6.3882   52.9298   15.7023 N.2         1 MOL      -0.0636
     22 N5         -6.7569   51.8818   15.1850 N.2         1 MOL      -0.1383
     23 N1         -5.9497   51.5016   14.2879 N.2         1 MOL      -0.2073
     24 H1          0.9579   48.8417   10.0787 H           1 MOL       0.0680
     25 H2          3.2114   47.0621    9.5383 H           1 MOL       0.1370
     26 H3          3.6218   44.7106   10.2786 H           1 MOL       0.2935
     27 H4         -0.5825   44.9532   12.6134 H           1 MOL       0.0630
     28 H5         -1.9373   46.9713   12.5569 H           1 MOL       0.0669
     29 H6         -0.5776   49.9790   12.8641 H           1 MOL       0.2252
     30 H7         -3.4020   50.3742   13.6267 H           1 MOL       0.0543
     31 H8         -0.8154   52.4436   11.0310 H           1 MOL       0.0536
     32 H9         -2.0952   54.4666   11.3645 H           1 MOL       0.0588
     33 H10        -3.9853   54.4889   12.8678 H           1 MOL       0.0535
     34 H11        -4.8128   54.1044   15.4053 H           1 MOL       0.2708
@<TRIPOS>BOND
     1     1     2   2
     2     2     3   1
     3     2    12  am
     4     3     4  ar
     5     3    11  ar
     6     4     5  ar
     7     5     6   2
     8     5     9  ar
     9     6     7   1
    10     7     8   1
    11     8     9   2
    12     9    10  ar
    13    10    11  ar
    14    12    13   1
    15    13    14  ar
    16    13    15  ar
    17    14    18  ar
    18    15    16  ar
    19    16    17  ar
    20    17    18  ar
    21    18    19   1
    22    19    20   1
    23    19    23   2
    24    20    21   1
    25    21    22   2
    26    22    23   1
    27     4    24   1
    28     6    25   1
    29     7    26   1
    30    10    27   1
    31    11    28   1
    32    12    29   1
    33    14    30   1
    34    15    31   1
    35    16    32   1
    36    17    33   1
    37    20    34   1
@<TRIPOS>SUBSTRUCTURE
     1  MOL      2

