@<TRIPOS>MOLECULE
4de1_ligand_001
    34    37
SMALL
GAST_HUCK
****
This file was generated by PARSER (from files_GN.cpp)

@<TRIPOS>ATOM
      1 O14        -2.0705   53.3087   13.6840 O.2         1 MOL      -0.3730
      2 C13        -2.9220   53.3970   12.8018 C.2         1 MOL       0.2323
      3 C15        -4.1984   53.8780   13.1468 C.ar        1 MOL       0.0570
      4 C20        -4.9260   54.7507   12.2885 C.ar        1 MOL      -0.0265
      5 C19        -6.1896   55.2305   12.6816 C.ar        1 MOL       0.0384
      6 C23        -7.1185   56.0705   12.0886 C.2         1 MOL       0.1104
      7 N22        -8.1522   56.1805   12.9455 N.pl3       1 MOL      -0.2442
      8 N21        -7.9533   55.4720   14.0135 N.2         1 MOL      -0.3319
      9 C18        -6.7617   54.8618   13.8944 C.ar        1 MOL      -0.0092
     10 C17        -6.0837   54.0012   14.7662 C.ar        1 MOL      -0.0531
     11 C16        -4.8016   53.5328   14.3967 C.ar        1 MOL      -0.0414
     12 N12        -2.5755   53.1133   11.5391 N.am        1 MOL      -0.2325
     13 C8         -1.3463   52.6568   11.1266 C.ar        1 MOL       0.0706
     14 C7         -0.5334   53.5002   10.3367 C.ar        1 MOL      -0.0238
     15 C9         -0.8965   51.3465   11.4172 C.ar        1 MOL      -0.0372
     16 C10         0.3707   50.9141   10.9761 C.ar        1 MOL      -0.0702
     17 C11         1.2023   51.7954   10.2640 C.ar        1 MOL      -0.0591
     18 C6          0.7653   53.1039    9.9459 C.ar        1 MOL       0.0268
     19 C2          1.6293   54.0050    9.2867 C.2         1 MOL       0.1822
     20 N3          2.9648   54.0558    9.3507 N.pl3       1 MOL      -0.1510
     21 N4          3.3520   55.0310    8.6637 N.2         1 MOL      -0.0636
     22 N5          2.3766   55.5770    8.1487 N.2         1 MOL      -0.1383
     23 N1          1.2946   55.0153    8.4730 N.2         1 MOL      -0.2073
     24 H1         -4.5449   55.0719   11.3996 H           1 MOL       0.0680
     25 H2         -7.0422   56.5293   11.1752 H           1 MOL       0.1370
     26 H3         -8.9479   56.7178   12.7889 H           1 MOL       0.2935
     27 H4         -6.5108   53.7286   15.6497 H           1 MOL       0.0630
     28 H5         -4.3248   52.9131   15.0491 H           1 MOL       0.0669
     29 H6         -3.2227   53.3258   10.8388 H           1 MOL       0.2252
     30 H7         -0.8737   54.4388   10.1140 H           1 MOL       0.0543
     31 H8         -1.4854   50.6999   11.9489 H           1 MOL       0.0536
     32 H9          0.6815   49.9656   11.1881 H           1 MOL       0.0588
     33 H10         2.1252   51.4594    9.9700 H           1 MOL       0.0535
     34 H11         3.5374   53.4582    9.8637 H           1 MOL       0.2708
@<TRIPOS>BOND
     1     1     2   2
     2     2     3   1
     3     2    12  am
     4     3     4  ar
     5     3    11  ar
     6     4     5  ar
     7     5     6   2
     8     5     9  ar
     9     6     7   1
    10     7     8   1
    11     8     9   2
    12     9    10  ar
    13    10    11  ar
    14    12    13   1
    15    13    14  ar
    16    13    15  ar
    17    14    18  ar
    18    15    16  ar
    19    16    17  ar
    20    17    18  ar
    21    18    19   1
    22    19    20   1
    23    19    23   2
    24    20    21   1
    25    21    22   2
    26    22    23   1
    27     4    24   1
    28     6    25   1
    29     7    26   1
    30    10    27   1
    31    11    28   1
    32    12    29   1
    33    14    30   1
    34    15    31   1
    35    16    32   1
    36    17    33   1
    37    20    34   1
@<TRIPOS>SUBSTRUCTURE
     1  MOL      2

