@<TRIPOS>MOLECULE
4de1_ligand_021
    34    37
SMALL
GAST_HUCK
****
This file was generated by PARSER (from files_GN.cpp)

@<TRIPOS>ATOM
      1 O14        -2.1426   50.9683   11.1018 O.2         1 MOL      -0.3730
      2 C13        -2.8545   51.8484   10.6162 C.2         1 MOL       0.2323
      3 C15        -3.3544   52.8624   11.4391 C.ar        1 MOL       0.0570
      4 C20        -4.7207   53.2535   11.3280 C.ar        1 MOL      -0.0265
      5 C19        -5.2161   54.2798   12.1428 C.ar        1 MOL       0.0384
      6 C23        -6.4653   54.8707   12.2416 C.2         1 MOL       0.1104
      7 N22        -6.3745   55.8088   13.2020 N.pl3       1 MOL      -0.2442
      8 N21        -5.1730   55.8496   13.7053 N.2         1 MOL      -0.3319
      9 C18        -4.4193   54.9216   13.0804 C.ar        1 MOL      -0.0092
     10 C17        -3.0747   54.5433   13.2377 C.ar        1 MOL      -0.0531
     11 C16        -2.5510   53.5185   12.4138 C.ar        1 MOL      -0.0414
     12 N12        -3.0546   51.9149    9.3073 N.am        1 MOL      -0.2325
     13 C8         -2.6684   51.0513    8.3130 C.ar        1 MOL       0.0706
     14 C7         -2.4800   49.6619    8.5091 C.ar        1 MOL      -0.0238
     15 C9         -2.4969   51.5836    7.0173 C.ar        1 MOL      -0.0372
     16 C10        -2.1460   50.7594    5.9357 C.ar        1 MOL      -0.0702
     17 C11        -1.9996   49.3756    6.1314 C.ar        1 MOL      -0.0591
     18 C6         -2.1564   48.8199    7.4215 C.ar        1 MOL       0.0268
     19 C2         -2.0822   47.4351    7.6180 C.2         1 MOL       0.1822
     20 N3         -3.0849   46.5658    7.6803 N.pl3       1 MOL      -0.1510
     21 N4         -2.5932   45.4210    7.8401 N.2         1 MOL      -0.0636
     22 N5         -1.3652   45.5030    7.8832 N.2         1 MOL      -0.1383
     23 N1         -0.9804   46.6989    7.7579 N.2         1 MOL      -0.2073
     24 H1         -5.3501   52.8110   10.6588 H           1 MOL       0.0680
     25 H2         -7.2922   54.6453   11.6851 H           1 MOL       0.1370
     26 H3         -7.1094   56.3821   13.4705 H           1 MOL       0.2935
     27 H4         -2.4882   55.0241   13.9228 H           1 MOL       0.0630
     28 H5         -1.5662   53.2745   12.5280 H           1 MOL       0.0669
     29 H6         -3.4753   52.7365    9.0036 H           1 MOL       0.2252
     30 H7         -2.6322   49.2592    9.4348 H           1 MOL       0.0543
     31 H8         -2.6359   52.5815    6.8414 H           1 MOL       0.0536
     32 H9         -2.0326   51.1492    4.9996 H           1 MOL       0.0588
     33 H10        -1.7697   48.7714    5.3329 H           1 MOL       0.0535
     34 H11        -4.0237   46.7950    7.6297 H           1 MOL       0.2708
@<TRIPOS>BOND
     1     1     2   2
     2     2     3   1
     3     2    12  am
     4     3     4  ar
     5     3    11  ar
     6     4     5  ar
     7     5     6   2
     8     5     9  ar
     9     6     7   1
    10     7     8   1
    11     8     9   2
    12     9    10  ar
    13    10    11  ar
    14    12    13   1
    15    13    14  ar
    16    13    15  ar
    17    14    18  ar
    18    15    16  ar
    19    16    17  ar
    20    17    18  ar
    21    18    19   1
    22    19    20   1
    23    19    23   2
    24    20    21   1
    25    21    22   2
    26    22    23   1
    27     4    24   1
    28     6    25   1
    29     7    26   1
    30    10    27   1
    31    11    28   1
    32    12    29   1
    33    14    30   1
    34    15    31   1
    35    16    32   1
    36    17    33   1
    37    20    34   1
@<TRIPOS>SUBSTRUCTURE
     1  MOL      2

