@<TRIPOS>MOLECULE
4de1_ligand_072
    34    37
SMALL
GAST_HUCK
****
This file was generated by PARSER (from files_GN.cpp)

@<TRIPOS>ATOM
      1 O14        -5.7857   47.7422   11.4368 O.2         1 MOL      -0.3730
      2 C13        -5.4645   48.8892   11.1634 C.2         1 MOL       0.2323
      3 C15        -5.2560   49.7755   12.1908 C.ar        1 MOL       0.0570
      4 C20        -6.3538   50.4816   12.7357 C.ar        1 MOL      -0.0265
      5 C19        -6.1037   51.4512   13.7147 C.ar        1 MOL       0.0384
      6 C23        -6.9177   52.3293   14.4003 C.2         1 MOL       0.1104
      7 N22        -6.1175   53.0488   15.2103 N.pl3       1 MOL      -0.2442
      8 N21        -4.8727   52.6907   15.0842 N.2         1 MOL      -0.3319
      9 C18        -4.8137   51.7067   14.1710 C.ar        1 MOL      -0.0092
     10 C17        -3.7135   50.9992   13.6567 C.ar        1 MOL      -0.0531
     11 C16        -3.9417   50.0332   12.6546 C.ar        1 MOL      -0.0414
     12 N12        -5.2727   49.3112    9.9246 N.am        1 MOL      -0.2325
     13 C8         -5.4038   48.5411    8.8232 C.ar        1 MOL       0.0706
     14 C7         -4.2578   47.9819    8.2278 C.ar        1 MOL      -0.0238
     15 C9         -6.6802   48.2389    8.3090 C.ar        1 MOL      -0.0372
     16 C10        -6.8102   47.3541    7.2285 C.ar        1 MOL      -0.0702
     17 C11        -5.6637   46.7585    6.6670 C.ar        1 MOL      -0.0591
     18 C6         -4.3708   47.0689    7.1533 C.ar        1 MOL       0.0268
     19 C2         -3.2152   46.4808    6.5878 C.2         1 MOL       0.1822
     20 N3         -2.0256   47.0410    6.3958 N.pl3       1 MOL      -0.1510
     21 N4         -1.2872   46.1949    5.8390 N.2         1 MOL      -0.0636
     22 N5         -1.9023   45.1498    5.6755 N.2         1 MOL      -0.1383
     23 N1         -3.0815   45.2435    6.1093 N.2         1 MOL      -0.2073
     24 H1         -7.3112   50.3224   12.4018 H           1 MOL       0.0680
     25 H2         -7.9294   52.4324   14.3030 H           1 MOL       0.1370
     26 H3         -6.4347   53.7506   15.8019 H           1 MOL       0.2935
     27 H4         -2.7671   51.1948   13.9875 H           1 MOL       0.0630
     28 H5         -3.1425   49.5258   12.2616 H           1 MOL       0.0669
     29 H6         -4.9435   50.2192    9.7981 H           1 MOL       0.2252
     30 H7         -3.3348   48.2080    8.6226 H           1 MOL       0.0543
     31 H8         -7.5171   48.6537    8.7176 H           1 MOL       0.0536
     32 H9         -7.7329   47.1292    6.8526 H           1 MOL       0.0588
     33 H10        -5.7785   46.0974    5.8889 H           1 MOL       0.0535
     34 H11        -1.7750   47.9450    6.6315 H           1 MOL       0.2708
@<TRIPOS>BOND
     1     1     2   2
     2     2     3   1
     3     2    12  am
     4     3     4  ar
     5     3    11  ar
     6     4     5  ar
     7     5     6   2
     8     5     9  ar
     9     6     7   1
    10     7     8   1
    11     8     9   2
    12     9    10  ar
    13    10    11  ar
    14    12    13   1
    15    13    14  ar
    16    13    15  ar
    17    14    18  ar
    18    15    16  ar
    19    16    17  ar
    20    17    18  ar
    21    18    19   1
    22    19    20   1
    23    19    23   2
    24    20    21   1
    25    21    22   2
    26    22    23   1
    27     4    24   1
    28     6    25   1
    29     7    26   1
    30    10    27   1
    31    11    28   1
    32    12    29   1
    33    14    30   1
    34    15    31   1
    35    16    32   1
    36    17    33   1
    37    20    34   1
@<TRIPOS>SUBSTRUCTURE
     1  MOL      2

