@<TRIPOS>MOLECULE
4de1_ligand_055
    34    37
SMALL
GAST_HUCK
****
This file was generated by PARSER (from files_GN.cpp)

@<TRIPOS>ATOM
      1 O14        -6.3726   54.8527    8.5156 O.2         1 MOL      -0.3730
      2 C13        -6.8267   54.4094    7.4651 C.2         1 MOL       0.2323
      3 C15        -7.0243   55.3087    6.4513 C.ar        1 MOL       0.0570
      4 C20        -8.3369   55.6401    6.0332 C.ar        1 MOL      -0.0265
      5 C19        -8.4911   56.6604    5.0796 C.ar        1 MOL       0.0384
      6 C23        -9.5998   57.2698    4.5210 C.2         1 MOL       0.1104
      7 N22        -9.1338   58.2285    3.7030 N.pl3       1 MOL      -0.2442
      8 N21        -7.8372   58.2818    3.7148 N.2         1 MOL      -0.3319
      9 C18        -7.3921   57.3148    4.5319 C.ar        1 MOL      -0.0092
     10 C17        -6.0837   56.9620    4.8972 C.ar        1 MOL      -0.0531
     11 C16        -5.9041   55.9624    5.8741 C.ar        1 MOL      -0.0414
     12 N12        -7.0415   53.1211    7.2472 N.am        1 MOL      -0.2325
     13 C8         -6.7663   52.0771    8.0854 C.ar        1 MOL       0.0706
     14 C7         -5.6444   52.0619    8.9471 C.ar        1 MOL      -0.0238
     15 C9         -7.6074   50.9458    8.0532 C.ar        1 MOL      -0.0372
     16 C10        -7.3698   49.8589    8.9128 C.ar        1 MOL      -0.0702
     17 C11        -6.2803   49.8844    9.8026 C.ar        1 MOL      -0.0591
     18 C6         -5.3958   50.9872    9.8265 C.ar        1 MOL       0.0268
     19 C2         -4.2873   51.0220   10.7074 C.2         1 MOL       0.1822
     20 N3         -3.4540   52.0390   10.9486 N.pl3       1 MOL      -0.1510
     21 N4         -2.6122   51.6651   11.8001 N.2         1 MOL      -0.0636
     22 N5         -2.8353   50.5008   12.1168 N.2         1 MOL      -0.1383
     23 N1         -3.8358   50.0412   11.4976 N.2         1 MOL      -0.2073
     24 H1         -9.1580   55.1918    6.4461 H           1 MOL       0.0680
     25 H2        -10.5797   57.0584    4.7135 H           1 MOL       0.1370
     26 H3         -9.6927   58.8328    3.1979 H           1 MOL       0.2935
     27 H4         -5.2784   57.4434    4.4933 H           1 MOL       0.0630
     28 H5         -4.9513   55.7270    6.1720 H           1 MOL       0.0669
     29 H6         -7.4824   52.8973    6.4161 H           1 MOL       0.2252
     30 H7         -4.9861   52.8392    8.9154 H           1 MOL       0.0543
     31 H8         -8.4057   50.9125    7.4124 H           1 MOL       0.0536
     32 H9         -8.0016   49.0546    8.9000 H           1 MOL       0.0588
     33 H10        -6.1433   49.0899   10.4327 H           1 MOL       0.0535
     34 H11        -3.4998   52.9238   10.5512 H           1 MOL       0.2708
@<TRIPOS>BOND
     1     1     2   2
     2     2     3   1
     3     2    12  am
     4     3     4  ar
     5     3    11  ar
     6     4     5  ar
     7     5     6   2
     8     5     9  ar
     9     6     7   1
    10     7     8   1
    11     8     9   2
    12     9    10  ar
    13    10    11  ar
    14    12    13   1
    15    13    14  ar
    16    13    15  ar
    17    14    18  ar
    18    15    16  ar
    19    16    17  ar
    20    17    18  ar
    21    18    19   1
    22    19    20   1
    23    19    23   2
    24    20    21   1
    25    21    22   2
    26    22    23   1
    27     4    24   1
    28     6    25   1
    29     7    26   1
    30    10    27   1
    31    11    28   1
    32    12    29   1
    33    14    30   1
    34    15    31   1
    35    16    32   1
    36    17    33   1
    37    20    34   1
@<TRIPOS>SUBSTRUCTURE
     1  MOL      2

