@<TRIPOS>MOLECULE
4de1_ligand_032
    34    37
SMALL
GAST_HUCK
****
This file was generated by PARSER (from files_GN.cpp)

@<TRIPOS>ATOM
      1 O14        -7.4529   53.3343    8.4370 O.2         1 MOL      -0.3730
      2 C13        -7.2214   54.2741    9.1915 C.2         1 MOL       0.2323
      3 C15        -7.1140   54.0255   10.5707 C.ar        1 MOL       0.0570
      4 C20        -6.8444   55.0703   11.4982 C.ar        1 MOL      -0.0265
      5 C19        -6.7190   54.7726   12.8641 C.ar        1 MOL       0.0384
      6 C23        -6.4737   55.5520   13.9795 C.2         1 MOL       0.1104
      7 N22        -6.5007   54.7285   15.0404 N.pl3       1 MOL      -0.2442
      8 N21        -6.7311   53.4991   14.6819 N.2         1 MOL      -0.3319
      9 C18        -6.8621   53.4783   13.3444 C.ar        1 MOL      -0.0092
     10 C17        -7.1332   52.4209   12.4672 C.ar        1 MOL      -0.0531
     11 C16        -7.2576   52.7030   11.0894 C.ar        1 MOL      -0.0414
     12 N12        -7.0001   55.4793    8.6595 N.am        1 MOL      -0.2325
     13 C8         -6.9918   55.7498    7.3248 C.ar        1 MOL       0.0706
     14 C7         -8.2043   55.8138    6.6054 C.ar        1 MOL      -0.0238
     15 C9         -5.7692   55.9142    6.6439 C.ar        1 MOL      -0.0372
     16 C10        -5.7544   56.0345    5.2416 C.ar        1 MOL      -0.0702
     17 C11        -6.9619   56.0164    4.5180 C.ar        1 MOL      -0.0591
     18 C6         -8.1976   55.9521    5.1987 C.ar        1 MOL       0.0268
     19 C2         -9.4129   56.0221    4.4865 C.2         1 MOL       0.1822
     20 N3        -10.5264   56.6657    4.8384 N.pl3       1 MOL      -0.1510
     21 N4        -11.3711   56.4947    3.9223 N.2         1 MOL      -0.0636
     22 N5        -10.8962   55.7888    3.0378 N.2         1 MOL      -0.1383
     23 N1         -9.7016   55.4674    3.3045 N.2         1 MOL      -0.2073
     24 H1         -6.7380   56.0392   11.1987 H           1 MOL       0.0680
     25 H2         -6.3380   56.5607   13.9995 H           1 MOL       0.1370
     26 H3         -6.4198   55.0305   15.9593 H           1 MOL       0.2935
     27 H4         -7.2473   51.4696   12.8235 H           1 MOL       0.0630
     28 H5         -7.4260   51.9134   10.4593 H           1 MOL       0.0669
     29 H6         -6.7234   56.2008    9.2494 H           1 MOL       0.2252
     30 H7         -9.0920   55.7209    7.1097 H           1 MOL       0.0543
     31 H8         -4.8855   55.8986    7.1552 H           1 MOL       0.0536
     32 H9         -4.8699   56.1141    4.7392 H           1 MOL       0.0588
     33 H10        -6.9330   56.1091    3.4966 H           1 MOL       0.0535
     34 H11       -10.6420   57.2298    5.6206 H           1 MOL       0.2708
@<TRIPOS>BOND
     1     1     2   2
     2     2     3   1
     3     2    12  am
     4     3     4  ar
     5     3    11  ar
     6     4     5  ar
     7     5     6   2
     8     5     9  ar
     9     6     7   1
    10     7     8   1
    11     8     9   2
    12     9    10  ar
    13    10    11  ar
    14    12    13   1
    15    13    14  ar
    16    13    15  ar
    17    14    18  ar
    18    15    16  ar
    19    16    17  ar
    20    17    18  ar
    21    18    19   1
    22    19    20   1
    23    19    23   2
    24    20    21   1
    25    21    22   2
    26    22    23   1
    27     4    24   1
    28     6    25   1
    29     7    26   1
    30    10    27   1
    31    11    28   1
    32    12    29   1
    33    14    30   1
    34    15    31   1
    35    16    32   1
    36    17    33   1
    37    20    34   1
@<TRIPOS>SUBSTRUCTURE
     1  MOL      2

