@<TRIPOS>MOLECULE
4de1_ligand_056
    34    37
SMALL
GAST_HUCK
****
This file was generated by PARSER (from files_GN.cpp)

@<TRIPOS>ATOM
      1 O14        -7.4327   52.3384   10.3239 O.2         1 MOL      -0.3730
      2 C13        -7.3517   52.5235   11.5456 C.2         1 MOL       0.2323
      3 C15        -6.0885   52.7355   12.1303 C.ar        1 MOL       0.0570
      4 C20        -4.9475   52.9546   11.3059 C.ar        1 MOL      -0.0265
      5 C19        -3.6977   53.2197   11.8815 C.ar        1 MOL       0.0384
      6 C23        -2.4527   53.5071   11.3456 C.2         1 MOL       0.1104
      7 N22        -1.6021   53.6337   12.3799 N.pl3       1 MOL      -0.2442
      8 N21        -2.2312   53.4842   13.5113 N.2         1 MOL      -0.3319
      9 C18        -3.5252   53.2426   13.2635 C.ar        1 MOL      -0.0092
     10 C17        -4.6160   53.0056   14.1114 C.ar        1 MOL      -0.0531
     11 C16        -5.8810   52.7392   13.5463 C.ar        1 MOL      -0.0414
     12 N12        -8.4922   52.4703   12.2483 N.am        1 MOL      -0.2325
     13 C8         -9.7484   52.2876   11.7317 C.ar        1 MOL       0.0706
     14 C7        -10.3430   53.2152   10.8477 C.ar        1 MOL      -0.0238
     15 C9        -10.4969   51.1601   12.1295 C.ar        1 MOL      -0.0372
     16 C10       -11.7842   50.9345   11.6040 C.ar        1 MOL      -0.0702
     17 C11       -12.3382   51.8450   10.6813 C.ar        1 MOL      -0.0591
     18 C6        -11.6418   53.0218   10.3225 C.ar        1 MOL       0.0268
     19 C2        -12.2422   53.9656    9.4450 C.2         1 MOL       0.1822
     20 N3        -11.8583   55.2236    9.1863 N.pl3       1 MOL      -0.1510
     21 N4        -12.6700   55.7156    8.3517 N.2         1 MOL      -0.0636
     22 N5        -13.5096   54.8680    8.0377 N.2         1 MOL      -0.1383
     23 N1        -13.3265   53.7847    8.6747 N.2         1 MOL      -0.2073
     24 H1         -5.0134   52.9469   10.2953 H           1 MOL       0.0680
     25 H2         -2.2081   53.5848   10.3643 H           1 MOL       0.1370
     26 H3         -0.6534   53.8423   12.2887 H           1 MOL       0.2935
     27 H4         -4.4957   53.0220   15.1308 H           1 MOL       0.0630
     28 H5         -6.6588   52.5376   14.1873 H           1 MOL       0.0669
     29 H6         -8.4295   52.5274   13.2241 H           1 MOL       0.2252
     30 H7         -9.8136   54.0385   10.5638 H           1 MOL       0.0543
     31 H8        -10.0986   50.4688   12.7740 H           1 MOL       0.0536
     32 H9        -12.3049   50.0850   11.8716 H           1 MOL       0.0588
     33 H10       -13.2788   51.6541   10.3282 H           1 MOL       0.0535
     34 H11       -11.1197   55.7066    9.6116 H           1 MOL       0.2708
@<TRIPOS>BOND
     1     1     2   2
     2     2     3   1
     3     2    12  am
     4     3     4  ar
     5     3    11  ar
     6     4     5  ar
     7     5     6   2
     8     5     9  ar
     9     6     7   1
    10     7     8   1
    11     8     9   2
    12     9    10  ar
    13    10    11  ar
    14    12    13   1
    15    13    14  ar
    16    13    15  ar
    17    14    18  ar
    18    15    16  ar
    19    16    17  ar
    20    17    18  ar
    21    18    19   1
    22    19    20   1
    23    19    23   2
    24    20    21   1
    25    21    22   2
    26    22    23   1
    27     4    24   1
    28     6    25   1
    29     7    26   1
    30    10    27   1
    31    11    28   1
    32    12    29   1
    33    14    30   1
    34    15    31   1
    35    16    32   1
    36    17    33   1
    37    20    34   1
@<TRIPOS>SUBSTRUCTURE
     1  MOL      2

