@<TRIPOS>MOLECULE
4de2_ligand_046
    43    45
SMALL
GAST_HUCK
****
This file was generated by PARSER (from files_GN.cpp)

@<TRIPOS>ATOM
      1 O14        -8.7799   53.5032    8.4878 O.2         1 DN3      -0.3730
      2 C13        -8.4946   54.6728    8.7257 C.2         1 DN3       0.2307
      3 C15        -7.8037   54.9979    9.8980 C.ar        1 DN3       0.0495
      4 C16        -7.7731   56.3286   10.3866 C.ar        1 DN3      -0.0484
      5 C17        -7.0615   56.6611   11.5497 C.ar        1 DN3      -0.0627
      6 C18        -6.3661   55.6695   12.2601 C.ar        1 DN3      -0.0510
      7 C19        -6.4079   54.3231   11.8367 C.ar        1 DN3       0.0068
      8 C21        -5.7285   53.2461   12.6210 C.3         1 DN3       0.0024
      9 N22        -6.2257   52.9672   14.0143 N.4         1 DN3       0.2429
     10 C23        -5.4975   53.6861   15.0981 C.3         1 DN3      -0.0419
     11 C24        -7.7060   53.0534   14.1867 C.3         1 DN3      -0.0419
     12 C20        -7.1182   54.0096   10.6511 C.ar        1 DN3      -0.0351
     13 N12        -8.7821   55.6119    7.8318 N.am        1 DN3      -0.2334
     14 C10        -9.4064   55.4255    6.6402 C.ar        1 DN3       0.0663
     15 C11        -8.6309   55.3889    5.4661 C.ar        1 DN3      -0.0321
     16 C6         -9.2415   55.2849    4.1945 C.ar        1 DN3      -0.0043
     17 C7        -10.6539   55.2382    4.1191 C.ar        1 DN3      -0.0672
     18 C8        -11.4328   55.2559    5.2914 C.ar        1 DN3      -0.0745
     19 C9        -10.8119   55.3429    6.5507 C.ar        1 DN3      -0.0410
     20 C2         -8.4426   55.2617    3.0313 C.2         1 DN3       0.1452
     21 N1         -8.7679   55.7291    1.8229 N.2         1 DN3      -0.1437
     22 N5         -7.7469   55.5560    1.1120 N.pl3       1 DN3      -0.1036
     23 N4         -6.8290   55.0265    1.7369 N.2         1 DN3      -0.0518
     24 N3         -7.1828   54.8213    2.9243 N.2         1 DN3      -0.1756
     25 H1         -8.2875   57.0744    9.9100 H           1 DN3       0.0611
     26 H2         -7.0443   57.6295   11.8710 H           1 DN3       0.0611
     27 H3         -5.8317   55.9426   13.0860 H           1 DN3       0.0594
     28 H4         -4.6577   53.4644   12.6235 H           1 DN3       0.0980
     29 H5         -5.8231   52.2960   12.0894 H           1 DN3       0.0980
     30 H6         -6.0034   51.9812   14.1748 H           1 DN3       0.2042
     31 H7         -5.8053   53.2975   16.0705 H           1 DN3       0.0778
     32 H8         -5.6946   54.7578   15.0779 H           1 DN3       0.0778
     33 H9         -4.4211   53.5216   15.0137 H           1 DN3       0.0778
     34 H10        -8.2104   52.4383   13.4398 H           1 DN3       0.0778
     35 H11        -8.0568   54.0830   14.0902 H           1 DN3       0.0778
     36 H12        -7.9955   52.6837   15.1715 H           1 DN3       0.0778
     37 H13        -7.1255   53.0392   10.3265 H           1 DN3       0.0609
     38 H14        -8.4160   56.4968    7.9886 H           1 DN3       0.2251
     39 H15        -7.6114   55.4426    5.5450 H           1 DN3       0.0504
     40 H16       -11.1271   55.1749    3.2140 H           1 DN3       0.0498
     41 H17       -12.4520   55.2048    5.2278 H           1 DN3       0.0579
     42 H18       -11.3848   55.3623    7.3975 H           1 DN3       0.0505
     43 H19        -7.6756   55.8517    0.2290 H           1 DN3       0.2946
@<TRIPOS>BOND
     1     1     2   2
     2     2     3   1
     3     2    13  am
     4     3     4  ar
     5     3    12  ar
     6     4     5  ar
     7     5     6  ar
     8     6     7  ar
     9     7     8   1
    10     7    12  ar
    11     8     9   1
    12     9    10   1
    13     9    11   1
    14    13    14   1
    15    14    15  ar
    16    14    19  ar
    17    15    16  ar
    18    16    17  ar
    19    16    20   1
    20    17    18  ar
    21    18    19  ar
    22    20    21   2
    23    20    24   1
    24    21    22   1
    25    22    23   1
    26    23    24   2
    27     4    25   1
    28     5    26   1
    29     6    27   1
    30     8    28   1
    31     8    29   1
    32     9    30   1
    33    10    31   1
    34    10    32   1
    35    10    33   1
    36    11    34   1
    37    11    35   1
    38    11    36   1
    39    12    37   1
    40    13    38   1
    41    15    39   1
    42    17    40   1
    43    18    41   1
    44    19    42   1
    45    22    43   1
@<TRIPOS>SUBSTRUCTURE
     1  DN3      2

