@<TRIPOS>MOLECULE
4de2_ligand_026
    43    45
SMALL
GAST_HUCK
****
This file was generated by PARSER (from files_GN.cpp)

@<TRIPOS>ATOM
      1 O14        -3.6961   50.0550   10.4312 O.2         1 DN3      -0.3730
      2 C13        -3.8269   50.9544   11.2561 C.2         1 DN3       0.2307
      3 C15        -5.0965   51.2162   11.7895 C.ar        1 DN3       0.0495
      4 C16        -6.2508   50.5311   11.3302 C.ar        1 DN3      -0.0484
      5 C17        -7.5297   50.8213   11.8374 C.ar        1 DN3      -0.0627
      6 C18        -7.6898   51.8079   12.8219 C.ar        1 DN3      -0.0510
      7 C19        -6.5725   52.5151   13.3164 C.ar        1 DN3       0.0068
      8 C21        -6.7368   53.5925   14.3414 C.3         1 DN3       0.0024
      9 N22        -6.6342   55.0018   13.8378 N.4         1 DN3       0.2429
     10 C23        -5.3328   55.3427   13.1970 C.3         1 DN3      -0.0419
     11 C24        -7.7879   55.4291   12.9937 C.3         1 DN3      -0.0419
     12 C20        -5.2922   52.1827   12.8115 C.ar        1 DN3      -0.0351
     13 N12        -2.7749   51.7268   11.5260 N.am        1 DN3      -0.2334
     14 C10        -1.5066   51.6223   11.0378 C.ar        1 DN3       0.0663
     15 C11        -0.8907   52.7882   10.5347 C.ar        1 DN3      -0.0321
     16 C6          0.4139   52.7572    9.9871 C.ar        1 DN3      -0.0043
     17 C7          1.1186   51.5297    9.9950 C.ar        1 DN3      -0.0672
     18 C8          0.5221   50.3630   10.5108 C.ar        1 DN3      -0.0745
     19 C9         -0.7824   50.4076   11.0324 C.ar        1 DN3      -0.0410
     20 C2          0.9720   53.9120    9.3999 C.2         1 DN3       0.1452
     21 N1          2.2544   54.1384    9.0913 N.2         1 DN3      -0.1437
     22 N5          2.2808   55.2777    8.5665 N.pl3       1 DN3      -0.1036
     23 N4          1.1661   55.7842    8.5010 N.2         1 DN3      -0.0518
     24 N3          0.3140   55.0020    8.9909 N.2         1 DN3      -0.1756
     25 H1         -6.1785   49.8197   10.6036 H           1 DN3       0.0611
     26 H2         -8.3456   50.3227   11.4777 H           1 DN3       0.0611
     27 H3         -8.6301   52.0109   13.1699 H           1 DN3       0.0594
     28 H4         -5.9896   53.4477   15.1262 H           1 DN3       0.0980
     29 H5         -7.7009   53.4745   14.8446 H           1 DN3       0.0980
     30 H6         -6.6767   55.5879   14.6717 H           1 DN3       0.2042
     31 H7         -5.2617   56.4164   13.0365 H           1 DN3       0.0778
     32 H8         -5.2200   54.8493   12.2291 H           1 DN3       0.0778
     33 H9         -4.5038   55.0495   13.8421 H           1 DN3       0.0778
     34 H10        -8.7333   55.2421   13.5067 H           1 DN3       0.0778
     35 H11        -7.8031   54.9021   12.0357 H           1 DN3       0.0778
     36 H12        -7.7342   56.5034   12.7989 H           1 DN3       0.0778
     37 H13        -4.4888   52.6831   13.1975 H           1 DN3       0.0609
     38 H14        -2.9558   52.5291   12.0324 H           1 DN3       0.2251
     39 H15        -1.4183   53.6649   10.5455 H           1 DN3       0.0504
     40 H16         2.0615   51.4647    9.5981 H           1 DN3       0.0498
     41 H17         1.0337   49.4741   10.4901 H           1 DN3       0.0579
     42 H18        -1.1950   49.5539   11.4160 H           1 DN3       0.0505
     43 H19         3.0622   55.6986    8.2723 H           1 DN3       0.2946
@<TRIPOS>BOND
     1     1     2   2
     2     2     3   1
     3     2    13  am
     4     3     4  ar
     5     3    12  ar
     6     4     5  ar
     7     5     6  ar
     8     6     7  ar
     9     7     8   1
    10     7    12  ar
    11     8     9   1
    12     9    10   1
    13     9    11   1
    14    13    14   1
    15    14    15  ar
    16    14    19  ar
    17    15    16  ar
    18    16    17  ar
    19    16    20   1
    20    17    18  ar
    21    18    19  ar
    22    20    21   2
    23    20    24   1
    24    21    22   1
    25    22    23   1
    26    23    24   2
    27     4    25   1
    28     5    26   1
    29     6    27   1
    30     8    28   1
    31     8    29   1
    32     9    30   1
    33    10    31   1
    34    10    32   1
    35    10    33   1
    36    11    34   1
    37    11    35   1
    38    11    36   1
    39    12    37   1
    40    13    38   1
    41    15    39   1
    42    17    40   1
    43    18    41   1
    44    19    42   1
    45    22    43   1
@<TRIPOS>SUBSTRUCTURE
     1  DN3      2

