@<TRIPOS>MOLECULE
4de2_ligand_045
    43    45
SMALL
GAST_HUCK
****
This file was generated by PARSER (from files_GN.cpp)

@<TRIPOS>ATOM
      1 O14        -9.5329   53.8866    9.2887 O.2         1 DN3      -0.3730
      2 C13        -8.7366   54.6854    9.7654 C.2         1 DN3       0.2307
      3 C15        -8.2596   54.4627   11.0632 C.ar        1 DN3       0.0495
      4 C16        -9.0735   53.8122   12.0265 C.ar        1 DN3      -0.0484
      5 C17        -8.6230   53.5909   13.3428 C.ar        1 DN3      -0.0627
      6 C18        -7.3371   54.0063   13.7238 C.ar        1 DN3      -0.0510
      7 C19        -6.4836   54.6433   12.7930 C.ar        1 DN3       0.0068
      8 C21        -5.1123   55.0700   13.1937 C.3         1 DN3       0.0024
      9 N22        -4.0613   54.0003   13.3845 N.4         1 DN3       0.2429
     10 C23        -4.3147   52.6770   12.7385 C.3         1 DN3      -0.0419
     11 C24        -2.6924   54.4993   13.0536 C.3         1 DN3      -0.0419
     12 C20        -6.9663   54.8726   11.4739 C.ar        1 DN3      -0.0351
     13 N12        -8.3313   55.7238    9.0305 N.am        1 DN3      -0.2334
     14 C10        -8.7672   56.1245    7.7905 C.ar        1 DN3       0.0663
     15 C11       -10.1301   56.1096    7.3859 C.ar        1 DN3      -0.0321
     16 C6        -10.5375   56.5808    6.1100 C.ar        1 DN3      -0.0043
     17 C7         -9.5495   57.0890    5.2365 C.ar        1 DN3      -0.0672
     18 C8         -8.2003   57.1478    5.6334 C.ar        1 DN3      -0.0745
     19 C9         -7.8195   56.6771    6.9034 C.ar        1 DN3      -0.0410
     20 C2        -11.9020   56.5720    5.7279 C.2         1 DN3       0.1452
     21 N1        -12.4168   56.8486    4.5210 N.2         1 DN3      -0.1437
     22 N5        -13.6631   56.7169    4.6388 N.pl3       1 DN3      -0.1036
     23 N4        -13.9873   56.3925    5.7786 N.2         1 DN3      -0.0518
     24 N3        -12.9586   56.2869    6.4961 N.2         1 DN3      -0.1756
     25 H1        -10.0271   53.5234   11.7934 H           1 DN3       0.0611
     26 H2         -9.2348   53.1320   14.0248 H           1 DN3       0.0611
     27 H3         -7.0237   53.8376   14.6865 H           1 DN3       0.0594
     28 H4         -5.2053   55.6066   14.1432 H           1 DN3       0.0980
     29 H5         -4.7679   55.8215   12.4741 H           1 DN3       0.0980
     30 H6         -4.0508   53.8080   14.3893 H           1 DN3       0.2042
     31 H7         -3.4928   51.9862   12.9337 H           1 DN3       0.0778
     32 H8         -4.4339   52.7823   11.6587 H           1 DN3       0.0778
     33 H9         -5.2126   52.2205   13.1535 H           1 DN3       0.0778
     34 H10        -2.4763   55.4232   13.5957 H           1 DN3       0.0778
     35 H11        -2.5953   54.6955   11.9819 H           1 DN3       0.0778
     36 H12        -1.9306   53.7705   13.3347 H           1 DN3       0.0778
     37 H13        -6.3392   55.3110   10.7961 H           1 DN3       0.0609
     38 H14        -7.6159   56.2579    9.4125 H           1 DN3       0.2251
     39 H15       -10.8295   55.7684    8.0438 H           1 DN3       0.0504
     40 H16        -9.7999   57.4472    4.3083 H           1 DN3       0.0498
     41 H17        -7.4970   57.5364    4.9967 H           1 DN3       0.0579
     42 H18        -6.8305   56.7333    7.1742 H           1 DN3       0.0505
     43 H19       -14.2729   56.8217    3.9329 H           1 DN3       0.2946
@<TRIPOS>BOND
     1     1     2   2
     2     2     3   1
     3     2    13  am
     4     3     4  ar
     5     3    12  ar
     6     4     5  ar
     7     5     6  ar
     8     6     7  ar
     9     7     8   1
    10     7    12  ar
    11     8     9   1
    12     9    10   1
    13     9    11   1
    14    13    14   1
    15    14    15  ar
    16    14    19  ar
    17    15    16  ar
    18    16    17  ar
    19    16    20   1
    20    17    18  ar
    21    18    19  ar
    22    20    21   2
    23    20    24   1
    24    21    22   1
    25    22    23   1
    26    23    24   2
    27     4    25   1
    28     5    26   1
    29     6    27   1
    30     8    28   1
    31     8    29   1
    32     9    30   1
    33    10    31   1
    34    10    32   1
    35    10    33   1
    36    11    34   1
    37    11    35   1
    38    11    36   1
    39    12    37   1
    40    13    38   1
    41    15    39   1
    42    17    40   1
    43    18    41   1
    44    19    42   1
    45    22    43   1
@<TRIPOS>SUBSTRUCTURE
     1  DN3      2

