@<TRIPOS>MOLECULE
4de2_ligand_038
    43    45
SMALL
GAST_HUCK
****
This file was generated by PARSER (from files_GN.cpp)

@<TRIPOS>ATOM
      1 O14        -9.4284   56.6745   11.1439 O.2         1 DN3      -0.3730
      2 C13        -8.4933   56.0457   10.6826 C.2         1 DN3       0.2307
      3 C15        -7.4560   55.6223   11.5400 C.ar        1 DN3       0.0495
      4 C16        -7.3757   56.1214   12.8666 C.ar        1 DN3      -0.0484
      5 C17        -6.3995   55.6609   13.7590 C.ar        1 DN3      -0.0627
      6 C18        -5.5110   54.6549   13.3589 C.ar        1 DN3      -0.0510
      7 C19        -5.5542   54.1158   12.0513 C.ar        1 DN3       0.0068
      8 C21        -4.5951   53.0223   11.7098 C.3         1 DN3       0.0024
      9 N22        -4.6009   52.4656   10.3061 N.4         1 DN3       0.2429
     10 C23        -3.2922   51.8430    9.9385 C.3         1 DN3      -0.0419
     11 C24        -5.7155   51.5164   10.0153 C.3         1 DN3      -0.0419
     12 C20        -6.5033   54.6513   11.1476 C.ar        1 DN3      -0.0351
     13 N12        -8.4847   55.7694    9.3763 N.am        1 DN3      -0.2334
     14 C10        -9.4757   56.0079    8.4581 C.ar        1 DN3       0.0663
     15 C11        -9.1146   56.4584    7.1664 C.ar        1 DN3      -0.0321
     16 C6        -10.0933   56.7233    6.1761 C.ar        1 DN3      -0.0043
     17 C7        -11.4509   56.4844    6.4927 C.ar        1 DN3      -0.0672
     18 C8        -11.8202   55.9936    7.7567 C.ar        1 DN3      -0.0745
     19 C9        -10.8376   55.7573    8.7326 C.ar        1 DN3      -0.0410
     20 C2         -9.7333   57.2434    4.9095 C.2         1 DN3       0.1452
     21 N1         -8.5048   57.4596    4.4231 N.2         1 DN3      -0.1437
     22 N5         -8.6719   57.9369    3.2711 N.pl3       1 DN3      -0.1036
     23 N4         -9.8651   58.0334    2.9819 N.2         1 DN3      -0.0518
     24 N3        -10.5676   57.6355    3.9366 N.2         1 DN3      -0.1756
     25 H1         -8.0333   56.8250   13.2062 H           1 DN3       0.0611
     26 H2         -6.3431   56.0471   14.7055 H           1 DN3       0.0611
     27 H3         -4.8183   54.3162   14.0345 H           1 DN3       0.0594
     28 H4         -4.7405   52.1952   12.4103 H           1 DN3       0.0980
     29 H5         -3.6097   53.4488   11.9110 H           1 DN3       0.0980
     30 H6         -4.7157   53.2668    9.6785 H           1 DN3       0.2042
     31 H7         -3.3069   51.5041    8.8979 H           1 DN3       0.0778
     32 H8         -3.0672   50.9909   10.5831 H           1 DN3       0.0778
     33 H9         -2.4908   52.5776   10.0293 H           1 DN3       0.0778
     34 H10        -6.6749   51.9309   10.3128 H           1 DN3       0.0778
     35 H11        -5.5828   50.5665   10.5305 H           1 DN3       0.0778
     36 H12        -5.7710   51.3154    8.9421 H           1 DN3       0.0778
     37 H13        -6.5158   54.2875   10.1983 H           1 DN3       0.0609
     38 H14        -7.6644   55.4039    9.0186 H           1 DN3       0.2251
     39 H15        -8.1226   56.6238    6.9643 H           1 DN3       0.0504
     40 H16       -12.1859   56.6542    5.8025 H           1 DN3       0.0498
     41 H17       -12.8055   55.8146    7.9652 H           1 DN3       0.0579
     42 H18       -11.1305   55.3862    9.6410 H           1 DN3       0.0505
     43 H19        -7.9755   58.1570    2.6885 H           1 DN3       0.2946
@<TRIPOS>BOND
     1     1     2   2
     2     2     3   1
     3     2    13  am
     4     3     4  ar
     5     3    12  ar
     6     4     5  ar
     7     5     6  ar
     8     6     7  ar
     9     7     8   1
    10     7    12  ar
    11     8     9   1
    12     9    10   1
    13     9    11   1
    14    13    14   1
    15    14    15  ar
    16    14    19  ar
    17    15    16  ar
    18    16    17  ar
    19    16    20   1
    20    17    18  ar
    21    18    19  ar
    22    20    21   2
    23    20    24   1
    24    21    22   1
    25    22    23   1
    26    23    24   2
    27     4    25   1
    28     5    26   1
    29     6    27   1
    30     8    28   1
    31     8    29   1
    32     9    30   1
    33    10    31   1
    34    10    32   1
    35    10    33   1
    36    11    34   1
    37    11    35   1
    38    11    36   1
    39    12    37   1
    40    13    38   1
    41    15    39   1
    42    17    40   1
    43    18    41   1
    44    19    42   1
    45    22    43   1
@<TRIPOS>SUBSTRUCTURE
     1  DN3      2

