@<TRIPOS>MOLECULE
4de2_ligand_030
    43    45
SMALL
GAST_HUCK
****
This file was generated by PARSER (from files_GN.cpp)

@<TRIPOS>ATOM
      1 O14        -7.0754   56.4186   12.7354 O.2         1 DN3      -0.3730
      2 C13        -7.2132   55.7621   11.7087 C.2         1 DN3       0.2307
      3 C15        -7.8078   56.3912   10.6034 C.ar        1 DN3       0.0495
      4 C16        -8.6149   57.5439   10.7658 C.ar        1 DN3      -0.0484
      5 C17        -9.1854   58.2011    9.6660 C.ar        1 DN3      -0.0627
      6 C18        -8.9549   57.7249    8.3654 C.ar        1 DN3      -0.0510
      7 C19        -8.1404   56.5905    8.1480 C.ar        1 DN3       0.0068
      8 C21        -7.8965   56.1283    6.7438 C.3         1 DN3       0.0024
      9 N22        -6.6825   55.2798    6.4937 N.4         1 DN3       0.2429
     10 C23        -6.6184   54.7878    5.0872 C.3         1 DN3      -0.0419
     11 C24        -5.3968   55.9307    6.8918 C.3         1 DN3      -0.0419
     12 C20        -7.6046   55.9239    9.2784 C.ar        1 DN3      -0.0351
     13 N12        -6.8178   54.4935   11.6590 N.am        1 DN3      -0.2334
     14 C10        -6.1677   53.6775   12.5610 C.ar        1 DN3       0.0663
     15 C11        -5.8419   52.3772   12.1056 C.ar        1 DN3      -0.0321
     16 C6         -5.1365   51.4520   12.9143 C.ar        1 DN3      -0.0043
     17 C7         -4.7569   51.8463   14.2174 C.ar        1 DN3      -0.0672
     18 C8         -5.0819   53.1245   14.6958 C.ar        1 DN3      -0.0745
     19 C9         -5.7784   54.0310   13.8790 C.ar        1 DN3      -0.0410
     20 C2         -4.8136   50.1587   12.4331 C.2         1 DN3       0.1452
     21 N1         -5.5299   49.4086   11.5901 N.2         1 DN3      -0.1437
     22 N5         -4.8771   48.3383   11.4607 N.pl3       1 DN3      -0.1036
     23 N4         -3.8291   48.3509   12.1080 N.2         1 DN3      -0.0518
     24 N3         -3.7271   49.4346   12.7370 N.2         1 DN3      -0.1756
     25 H1         -8.8104   57.9168   11.6978 H           1 DN3       0.0611
     26 H2         -9.7648   59.0318    9.8063 H           1 DN3       0.0611
     27 H3         -9.3760   58.2225    7.5746 H           1 DN3       0.0594
     28 H4         -7.8423   56.9993    6.0780 H           1 DN3       0.0980
     29 H5         -8.7930   55.5658    6.4690 H           1 DN3       0.0980
     30 H6         -6.7943   54.4444    7.0726 H           1 DN3       0.2042
     31 H7         -5.7874   54.0915    4.9720 H           1 DN3       0.0778
     32 H8         -6.4827   55.6146    4.3845 H           1 DN3       0.0778
     33 H9         -7.5321   54.2523    4.8222 H           1 DN3       0.0778
     34 H10        -5.4344   56.3240    7.9039 H           1 DN3       0.0778
     35 H11        -5.1507   56.7602    6.2272 H           1 DN3       0.0778
     36 H12        -4.5902   55.1981    6.8667 H           1 DN3       0.0778
     37 H13        -7.0146   55.1032    9.1268 H           1 DN3       0.0609
     38 H14        -7.0412   54.0462   10.8275 H           1 DN3       0.2251
     39 H15        -6.1028   52.1046   11.1517 H           1 DN3       0.0504
     40 H16        -4.2593   51.1992   14.8346 H           1 DN3       0.0498
     41 H17        -4.8113   53.3992   15.6424 H           1 DN3       0.0579
     42 H18        -5.9765   54.9470   14.2732 H           1 DN3       0.0505
     43 H19        -5.1636   47.6096   10.9489 H           1 DN3       0.2946
@<TRIPOS>BOND
     1     1     2   2
     2     2     3   1
     3     2    13  am
     4     3     4  ar
     5     3    12  ar
     6     4     5  ar
     7     5     6  ar
     8     6     7  ar
     9     7     8   1
    10     7    12  ar
    11     8     9   1
    12     9    10   1
    13     9    11   1
    14    13    14   1
    15    14    15  ar
    16    14    19  ar
    17    15    16  ar
    18    16    17  ar
    19    16    20   1
    20    17    18  ar
    21    18    19  ar
    22    20    21   2
    23    20    24   1
    24    21    22   1
    25    22    23   1
    26    23    24   2
    27     4    25   1
    28     5    26   1
    29     6    27   1
    30     8    28   1
    31     8    29   1
    32     9    30   1
    33    10    31   1
    34    10    32   1
    35    10    33   1
    36    11    34   1
    37    11    35   1
    38    11    36   1
    39    12    37   1
    40    13    38   1
    41    15    39   1
    42    17    40   1
    43    18    41   1
    44    19    42   1
    45    22    43   1
@<TRIPOS>SUBSTRUCTURE
     1  DN3      2

