@<TRIPOS>MOLECULE
4de2_ligand_028
    43    45
SMALL
GAST_HUCK
****
This file was generated by PARSER (from files_GN.cpp)

@<TRIPOS>ATOM
      1 O14        -9.7030   54.3723    8.2471 O.2         1 DN3      -0.3730
      2 C13        -8.7461   53.6299    8.0568 C.2         1 DN3       0.2307
      3 C15        -8.0713   53.6828    6.8504 C.ar        1 DN3       0.0495
      4 C16        -7.6275   52.4945    6.2252 C.ar        1 DN3      -0.0484
      5 C17        -6.9114   52.5472    5.0193 C.ar        1 DN3      -0.0627
      6 C18        -6.6301   53.7875    4.4231 C.ar        1 DN3      -0.0510
      7 C19        -7.0715   54.9945    5.0166 C.ar        1 DN3       0.0068
      8 C21        -6.7832   56.3132    4.3776 C.3         1 DN3       0.0024
      9 N22        -7.9267   57.0042    3.6866 N.4         1 DN3       0.2429
     10 C23        -8.7466   56.1082    2.8253 C.3         1 DN3      -0.0419
     11 C24        -8.7699   57.8661    4.5646 C.3         1 DN3      -0.0419
     12 C20        -7.7885   54.9248    6.2330 C.ar        1 DN3      -0.0351
     13 N12        -8.2587   52.8586    9.0204 N.am        1 DN3      -0.2334
     14 C10        -8.7266   52.7489   10.2918 C.ar        1 DN3       0.0663
     15 C11        -7.8062   52.8977   11.3488 C.ar        1 DN3      -0.0321
     16 C6         -8.2163   52.8027   12.6997 C.ar        1 DN3      -0.0043
     17 C7         -9.5769   52.5194   12.9695 C.ar        1 DN3      -0.0672
     18 C8        -10.4982   52.3418   11.9189 C.ar        1 DN3      -0.0745
     19 C9        -10.0765   52.4604   10.5837 C.ar        1 DN3      -0.0410
     20 C2         -7.2740   52.9849   13.7402 C.2         1 DN3       0.1452
     21 N1         -7.3760   52.6126   15.0208 N.2         1 DN3      -0.1437
     22 N5         -6.2905   52.9486   15.5612 N.pl3       1 DN3      -0.1036
     23 N4         -5.5238   53.4818   14.7643 N.2         1 DN3      -0.0518
     24 N3         -6.0599   53.5407   13.6295 N.2         1 DN3      -0.1756
     25 H1         -7.8359   51.5797    6.6361 H           1 DN3       0.0611
     26 H2         -6.5949   51.6833    4.5738 H           1 DN3       0.0611
     27 H3         -6.1068   53.8007    3.5438 H           1 DN3       0.0594
     28 H4         -6.0013   56.1841    3.6213 H           1 DN3       0.0980
     29 H5         -6.3444   56.9722    5.1329 H           1 DN3       0.0980
     30 H6         -7.4780   57.6479    3.0330 H           1 DN3       0.2042
     31 H7         -9.3978   56.7032    2.1836 H           1 DN3       0.0778
     32 H8         -9.3641   55.4410    3.4308 H           1 DN3       0.0778
     33 H9         -8.1063   55.5048    2.1783 H           1 DN3       0.0778
     34 H10        -8.1518   58.5902    5.0977 H           1 DN3       0.0778
     35 H11        -9.3290   57.2763    5.2915 H           1 DN3       0.0778
     36 H12        -9.4833   58.4321    3.9617 H           1 DN3       0.0778
     37 H13        -8.0701   55.7916    6.6970 H           1 DN3       0.0609
     38 H14        -7.4051   52.4326    8.8378 H           1 DN3       0.2251
     39 H15        -6.8259   53.0915   11.1232 H           1 DN3       0.0504
     40 H16        -9.9155   52.4523   13.9317 H           1 DN3       0.0498
     41 H17       -11.4777   52.1312   12.1262 H           1 DN3       0.0579
     42 H18       -10.7511   52.3177    9.8272 H           1 DN3       0.0505
     43 H19        -6.0382   52.6980   16.4259 H           1 DN3       0.2946
@<TRIPOS>BOND
     1     1     2   2
     2     2     3   1
     3     2    13  am
     4     3     4  ar
     5     3    12  ar
     6     4     5  ar
     7     5     6  ar
     8     6     7  ar
     9     7     8   1
    10     7    12  ar
    11     8     9   1
    12     9    10   1
    13     9    11   1
    14    13    14   1
    15    14    15  ar
    16    14    19  ar
    17    15    16  ar
    18    16    17  ar
    19    16    20   1
    20    17    18  ar
    21    18    19  ar
    22    20    21   2
    23    20    24   1
    24    21    22   1
    25    22    23   1
    26    23    24   2
    27     4    25   1
    28     5    26   1
    29     6    27   1
    30     8    28   1
    31     8    29   1
    32     9    30   1
    33    10    31   1
    34    10    32   1
    35    10    33   1
    36    11    34   1
    37    11    35   1
    38    11    36   1
    39    12    37   1
    40    13    38   1
    41    15    39   1
    42    17    40   1
    43    18    41   1
    44    19    42   1
    45    22    43   1
@<TRIPOS>SUBSTRUCTURE
     1  DN3      2

