@<TRIPOS>MOLECULE
4de2_ligand_015
    43    45
SMALL
GAST_HUCK
****
This file was generated by PARSER (from files_GN.cpp)

@<TRIPOS>ATOM
      1 O14        -2.9536   51.0239    9.2696 O.2         1 DN3      -0.3730
      2 C13        -2.3257   51.0770   10.3335 C.2         1 DN3       0.2307
      3 C15        -2.5780   52.1470   11.1859 C.ar        1 DN3       0.0495
      4 C16        -1.5177   52.8648   11.8030 C.ar        1 DN3      -0.0484
      5 C17        -1.7781   53.9579   12.6507 C.ar        1 DN3      -0.0627
      6 C18        -3.0993   54.3509   12.9124 C.ar        1 DN3      -0.0510
      7 C19        -4.1788   53.6504   12.3405 C.ar        1 DN3       0.0068
      8 C21        -5.5840   54.0583   12.6153 C.3         1 DN3       0.0024
      9 N22        -6.1566   53.3697   13.8176 N.4         1 DN3       0.2429
     10 C23        -5.5884   53.8728   15.1054 C.3         1 DN3      -0.0419
     11 C24        -7.6496   53.3942   13.8371 C.3         1 DN3      -0.0419
     12 C20        -3.9068   52.5635   11.4776 C.ar        1 DN3      -0.0351
     13 N12        -1.3678   50.1785   10.5963 N.am        1 DN3      -0.2334
     14 C10        -1.0135   48.9900    9.9947 C.ar        1 DN3       0.0663
     15 C11         0.3061   48.5201   10.1848 C.ar        1 DN3      -0.0321
     16 C6          0.7153   47.2395    9.7256 C.ar        1 DN3      -0.0043
     17 C7         -0.2238   46.4215    9.0577 C.ar        1 DN3      -0.0672
     18 C8         -1.5215   46.8843    8.8265 C.ar        1 DN3      -0.0745
     19 C9         -1.9155   48.1525    9.2887 C.ar        1 DN3      -0.0410
     20 C2          2.0176   46.7618    9.9602 C.2         1 DN3       0.1452
     21 N1          2.3497   45.6222   10.5976 N.2         1 DN3      -0.1437
     22 N5          3.6019   45.6034   10.6082 N.pl3       1 DN3      -0.1036
     23 N4          4.0882   46.5916   10.0611 N.2         1 DN3      -0.0518
     24 N3          3.1781   47.3483    9.6430 N.2         1 DN3      -0.1756
     25 H1         -0.5476   52.6177   11.6213 H           1 DN3       0.0611
     26 H2         -1.0014   54.4683   13.0744 H           1 DN3       0.0611
     27 H3         -3.2651   55.1502   13.5312 H           1 DN3       0.0594
     28 H4         -6.1663   53.8203   11.7201 H           1 DN3       0.0980
     29 H5         -5.6557   55.1459   12.7366 H           1 DN3       0.0980
     30 H6         -5.8938   52.3821   13.7509 H           1 DN3       0.2042
     31 H7         -5.9703   53.2946   15.9484 H           1 DN3       0.0778
     32 H8         -5.8480   54.9231   15.2615 H           1 DN3       0.0778
     33 H9         -4.5006   53.7796   15.1131 H           1 DN3       0.0778
     34 H10        -8.0423   52.8397   12.9821 H           1 DN3       0.0778
     35 H11        -8.0277   54.4178   13.7939 H           1 DN3       0.0778
     36 H12        -8.0353   52.9190   14.7410 H           1 DN3       0.0778
     37 H13        -4.6980   52.0642   11.0628 H           1 DN3       0.0609
     38 H14        -0.8488   50.3830   11.3938 H           1 DN3       0.2251
     39 H15         0.9732   49.0978   10.6990 H           1 DN3       0.0504
     40 H16         0.0423   45.4862    8.7324 H           1 DN3       0.0498
     41 H17        -2.1950   46.2864    8.3407 H           1 DN3       0.0579
     42 H18        -2.8825   48.4328    9.1398 H           1 DN3       0.0505
     43 H19         4.1041   44.9417   11.0331 H           1 DN3       0.2946
@<TRIPOS>BOND
     1     1     2   2
     2     2     3   1
     3     2    13  am
     4     3     4  ar
     5     3    12  ar
     6     4     5  ar
     7     5     6  ar
     8     6     7  ar
     9     7     8   1
    10     7    12  ar
    11     8     9   1
    12     9    10   1
    13     9    11   1
    14    13    14   1
    15    14    15  ar
    16    14    19  ar
    17    15    16  ar
    18    16    17  ar
    19    16    20   1
    20    17    18  ar
    21    18    19  ar
    22    20    21   2
    23    20    24   1
    24    21    22   1
    25    22    23   1
    26    23    24   2
    27     4    25   1
    28     5    26   1
    29     6    27   1
    30     8    28   1
    31     8    29   1
    32     9    30   1
    33    10    31   1
    34    10    32   1
    35    10    33   1
    36    11    34   1
    37    11    35   1
    38    11    36   1
    39    12    37   1
    40    13    38   1
    41    15    39   1
    42    17    40   1
    43    18    41   1
    44    19    42   1
    45    22    43   1
@<TRIPOS>SUBSTRUCTURE
     1  DN3      2

