@<TRIPOS>MOLECULE
4de2_ligand_008
    43    45
SMALL
GAST_HUCK
****
This file was generated by PARSER (from files_GN.cpp)

@<TRIPOS>ATOM
      1 O14        -1.1695   49.0605   10.9702 O.2         1 DN3      -0.3730
      2 C13         0.0014   48.8004   10.7151 C.2         1 DN3       0.2307
      3 C15         0.4067   47.4616   10.6633 C.ar        1 DN3       0.0495
      4 C16         1.6024   47.0628   10.0156 C.ar        1 DN3      -0.0484
      5 C17         1.9797   45.7108    9.9479 C.ar        1 DN3      -0.0627
      6 C18         1.1935   44.7311   10.5728 C.ar        1 DN3      -0.0510
      7 C19         0.0138   45.0847   11.2646 C.ar        1 DN3       0.0068
      8 C21        -0.8309   44.0570   11.9465 C.3         1 DN3       0.0024
      9 N22        -0.6411   43.8883   13.4264 N.4         1 DN3       0.2429
     10 C23         0.7259   43.4394   13.8119 C.3         1 DN3      -0.0419
     11 C24        -1.1020   45.0479   14.2489 C.3         1 DN3      -0.0419
     12 C20        -0.3753   46.4440   11.2745 C.ar        1 DN3      -0.0351
     13 N12         0.8601   49.7822   10.4399 N.am        1 DN3      -0.2334
     14 C10         0.6934   51.1339   10.4348 C.ar        1 DN3       0.0663
     15 C11        -0.2310   51.8244   11.2525 C.ar        1 DN3      -0.0321
     16 C6         -0.4264   53.2142   11.1079 C.ar        1 DN3      -0.0043
     17 C7          0.3311   53.9242   10.1542 C.ar        1 DN3      -0.0672
     18 C8          1.3406   53.2709    9.4251 C.ar        1 DN3      -0.0745
     19 C9          1.5338   51.8874    9.5820 C.ar        1 DN3      -0.0410
     20 C2         -1.3812   53.8717   11.8930 C.2         1 DN3       0.1452
     21 N1         -1.4086   53.9673   13.2272 N.2         1 DN3      -0.1437
     22 N5         -2.4340   54.6555   13.4740 N.pl3       1 DN3      -0.1036
     23 N4         -3.0569   54.9645   12.4579 N.2         1 DN3      -0.0518
     24 N3         -2.4607   54.5195   11.4455 N.2         1 DN3      -0.1756
     25 H1          2.2011   47.7399    9.5430 H           1 DN3       0.0611
     26 H2          2.8360   45.4483    9.4520 H           1 DN3       0.0611
     27 H3          1.4966   43.7520   10.5204 H           1 DN3       0.0594
     28 H4         -0.6614   43.0833   11.4779 H           1 DN3       0.0980
     29 H5         -1.8829   44.2826   11.7430 H           1 DN3       0.0980
     30 H6         -1.2644   43.1194   13.6858 H           1 DN3       0.2042
     31 H7          0.7669   43.1984   14.8759 H           1 DN3       0.0778
     32 H8          1.4702   44.2085   13.6003 H           1 DN3       0.0778
     33 H9          0.9938   42.5327   13.2667 H           1 DN3       0.0778
     34 H10        -2.1031   45.3656   13.9450 H           1 DN3       0.0778
     35 H11        -0.4166   45.8937   14.1566 H           1 DN3       0.0778
     36 H12        -1.1533   44.7576   15.2999 H           1 DN3       0.0778
     37 H13        -1.2485   46.6925   11.7432 H           1 DN3       0.0609
     38 H14         1.7388   49.4941   10.1738 H           1 DN3       0.2251
     39 H15        -0.7763   51.3137   11.9506 H           1 DN3       0.0504
     40 H16         0.1894   54.9275   10.0144 H           1 DN3       0.0498
     41 H17         1.9260   53.7960    8.7729 H           1 DN3       0.0579
     42 H18         2.2645   51.4261    9.0357 H           1 DN3       0.0505
     43 H19        -2.6956   54.9038   14.3305 H           1 DN3       0.2946
@<TRIPOS>BOND
     1     1     2   2
     2     2     3   1
     3     2    13  am
     4     3     4  ar
     5     3    12  ar
     6     4     5  ar
     7     5     6  ar
     8     6     7  ar
     9     7     8   1
    10     7    12  ar
    11     8     9   1
    12     9    10   1
    13     9    11   1
    14    13    14   1
    15    14    15  ar
    16    14    19  ar
    17    15    16  ar
    18    16    17  ar
    19    16    20   1
    20    17    18  ar
    21    18    19  ar
    22    20    21   2
    23    20    24   1
    24    21    22   1
    25    22    23   1
    26    23    24   2
    27     4    25   1
    28     5    26   1
    29     6    27   1
    30     8    28   1
    31     8    29   1
    32     9    30   1
    33    10    31   1
    34    10    32   1
    35    10    33   1
    36    11    34   1
    37    11    35   1
    38    11    36   1
    39    12    37   1
    40    13    38   1
    41    15    39   1
    42    17    40   1
    43    18    41   1
    44    19    42   1
    45    22    43   1
@<TRIPOS>SUBSTRUCTURE
     1  DN3      2

