@<TRIPOS>MOLECULE
4de2_ligand_042
    43    45
SMALL
GAST_HUCK
****
This file was generated by PARSER (from files_GN.cpp)

@<TRIPOS>ATOM
      1 O14        -8.7646   55.5870   13.6965 O.2         1 DN3      -0.3730
      2 C13        -8.0631   55.3989   12.7077 C.2         1 DN3       0.2307
      3 C15        -6.8793   54.6674   12.8697 C.ar        1 DN3       0.0495
      4 C16        -6.1351   54.7224   14.0754 C.ar        1 DN3      -0.0484
      5 C17        -4.9542   53.9741   14.2298 C.ar        1 DN3      -0.0627
      6 C18        -4.5074   53.1343   13.1965 C.ar        1 DN3      -0.0510
      7 C19        -5.2352   53.0276   11.9835 C.ar        1 DN3       0.0068
      8 C21        -4.8269   52.0193   10.9485 C.3         1 DN3       0.0024
      9 N22        -4.9116   52.5015    9.5192 N.4         1 DN3       0.2429
     10 C23        -3.6917   52.1902    8.7081 C.3         1 DN3      -0.0419
     11 C24        -6.1360   52.0341    8.7881 C.3         1 DN3      -0.0419
     12 C20        -6.4041   53.8191   11.8417 C.ar        1 DN3      -0.0351
     13 N12        -8.4478   55.8358   11.5023 N.am        1 DN3      -0.2334
     14 C10        -9.5229   56.6232   11.1761 C.ar        1 DN3       0.0663
     15 C11       -10.0759   56.4917    9.8799 C.ar        1 DN3      -0.0321
     16 C6        -11.1893   57.2636    9.4678 C.ar        1 DN3      -0.0043
     17 C7        -11.7305   58.2029   10.3753 C.ar        1 DN3      -0.0672
     18 C8        -11.1689   58.3760   11.6513 C.ar        1 DN3      -0.0745
     19 C9        -10.0716   57.5968   12.0453 C.ar        1 DN3      -0.0410
     20 C2        -11.7524   57.1094    8.1776 C.2         1 DN3       0.1452
     21 N1        -11.2988   56.3581    7.1670 N.2         1 DN3      -0.1437
     22 N5        -12.1102   56.5330    6.2207 N.pl3       1 DN3      -0.1036
     23 N4        -13.0174   57.3027    6.5257 N.2         1 DN3      -0.0518
     24 N3        -12.8625   57.6967    7.7104 N.2         1 DN3      -0.1756
     25 H1         -6.4447   55.3188   14.8476 H           1 DN3       0.0611
     26 H2         -4.4341   54.0228   15.1055 H           1 DN3       0.0611
     27 H3         -3.6622   52.5731   13.3491 H           1 DN3       0.0594
     28 H4         -5.4495   51.1342   11.0870 H           1 DN3       0.0980
     29 H5         -3.8072   51.6925   11.1733 H           1 DN3       0.0980
     30 H6         -4.9473   53.5201    9.5525 H           1 DN3       0.2042
     31 H7         -3.7682   52.6389    7.7180 H           1 DN3       0.0778
     32 H8         -3.5536   51.1098    8.5954 H           1 DN3       0.0778
     33 H9         -2.8003   52.6051    9.1863 H           1 DN3       0.0778
     34 H10        -7.0508   52.2028    9.3514 H           1 DN3       0.0778
     35 H11        -6.0763   50.9577    8.5731 H           1 DN3       0.0778
     36 H12        -6.2243   52.5776    7.8417 H           1 DN3       0.0778
     37 H13        -6.9442   53.7553   10.9870 H           1 DN3       0.0609
     38 H14        -7.9219   55.5346   10.7500 H           1 DN3       0.2251
     39 H15        -9.6653   55.8075    9.2358 H           1 DN3       0.0504
     40 H16       -12.5301   58.7845   10.1163 H           1 DN3       0.0498
     41 H17       -11.5538   59.0743   12.2932 H           1 DN3       0.0579
     42 H18        -9.6635   57.7665   12.9619 H           1 DN3       0.0505
     43 H19       -12.0331   56.1272    5.3831 H           1 DN3       0.2946
@<TRIPOS>BOND
     1     1     2   2
     2     2     3   1
     3     2    13  am
     4     3     4  ar
     5     3    12  ar
     6     4     5  ar
     7     5     6  ar
     8     6     7  ar
     9     7     8   1
    10     7    12  ar
    11     8     9   1
    12     9    10   1
    13     9    11   1
    14    13    14   1
    15    14    15  ar
    16    14    19  ar
    17    15    16  ar
    18    16    17  ar
    19    16    20   1
    20    17    18  ar
    21    18    19  ar
    22    20    21   2
    23    20    24   1
    24    21    22   1
    25    22    23   1
    26    23    24   2
    27     4    25   1
    28     5    26   1
    29     6    27   1
    30     8    28   1
    31     8    29   1
    32     9    30   1
    33    10    31   1
    34    10    32   1
    35    10    33   1
    36    11    34   1
    37    11    35   1
    38    11    36   1
    39    12    37   1
    40    13    38   1
    41    15    39   1
    42    17    40   1
    43    18    41   1
    44    19    42   1
    45    22    43   1
@<TRIPOS>SUBSTRUCTURE
     1  DN3      2

