@<TRIPOS>MOLECULE
4de2_ligand_009
    43    45
SMALL
GAST_HUCK
****
This file was generated by PARSER (from files_GN.cpp)

@<TRIPOS>ATOM
      1 O14        -5.3480   50.5836   12.3033 O.2         1 DN3      -0.3730
      2 C13        -5.8510   51.6468   12.6494 C.2         1 DN3       0.2307
      3 C15        -7.2439   51.7320   12.7256 C.ar        1 DN3       0.0495
      4 C16        -7.8890   52.6176   13.6240 C.ar        1 DN3      -0.0484
      5 C17        -9.2880   52.7676   13.6096 C.ar        1 DN3      -0.0627
      6 C18       -10.0652   52.0489   12.6812 C.ar        1 DN3      -0.0510
      7 C19        -9.4626   51.1276   11.7942 C.ar        1 DN3       0.0068
      8 C21       -10.3039   50.4003   10.8026 C.3         1 DN3       0.0024
      9 N22       -11.2871   49.4850   11.4759 N.4         1 DN3       0.2429
     10 C23       -12.7015   49.6846   11.0302 C.3         1 DN3      -0.0419
     11 C24       -10.8800   48.0464   11.4436 C.3         1 DN3      -0.0419
     12 C20        -8.0554   50.9701   11.8424 C.ar        1 DN3      -0.0351
     13 N12        -5.1005   52.7246   12.8835 N.am        1 DN3      -0.2334
     14 C10        -3.7539   52.9744   12.6933 C.ar        1 DN3       0.0663
     15 C11        -2.8323   52.1374   12.0037 C.ar        1 DN3      -0.0321
     16 C6         -1.5216   52.5759   11.6999 C.ar        1 DN3      -0.0043
     17 C7         -1.1306   53.8698   12.1041 C.ar        1 DN3      -0.0672
     18 C8         -1.9972   54.6733   12.8592 C.ar        1 DN3      -0.0745
     19 C9         -3.2940   54.2311   13.1443 C.ar        1 DN3      -0.0410
     20 C2         -0.6291   51.7425   10.9929 C.2         1 DN3       0.1452
     21 N1         -0.2876   50.4903   11.3127 N.2         1 DN3      -0.1437
     22 N5          0.5164   50.1264   10.4183 N.pl3       1 DN3      -0.1036
     23 N4          0.6974   50.9997    9.5670 N.2         1 DN3      -0.0518
     24 N3          0.0332   52.0267    9.8561 N.2         1 DN3      -0.1756
     25 H1         -7.3583   53.1537   14.3141 H           1 DN3       0.0611
     26 H2         -9.7395   53.4058   14.2678 H           1 DN3       0.0611
     27 H3        -11.0767   52.2121   12.6477 H           1 DN3       0.0594
     28 H4         -9.6766   49.8483   10.0925 H           1 DN3       0.0980
     29 H5        -10.8086   51.1671   10.2007 H           1 DN3       0.0980
     30 H6        -11.2913   49.7417   12.4649 H           1 DN3       0.2042
     31 H7        -13.3759   49.0536   11.6083 H           1 DN3       0.0778
     32 H8        -12.8207   49.4579    9.9691 H           1 DN3       0.0778
     33 H9        -12.9966   50.7210   11.2035 H           1 DN3       0.0778
     34 H10        -9.8575   47.9338   11.8140 H           1 DN3       0.0778
     35 H11       -10.9291   47.6413   10.4286 H           1 DN3       0.0778
     36 H12       -11.5333   47.4571   12.0875 H           1 DN3       0.0778
     37 H13        -7.6166   50.3220   11.1896 H           1 DN3       0.0609
     38 H14        -5.6028   53.4964   13.1689 H           1 DN3       0.2251
     39 H15        -3.1288   51.2293   11.6572 H           1 DN3       0.0504
     40 H16        -0.2025   54.2366   11.8618 H           1 DN3       0.0498
     41 H17        -1.6939   55.5916   13.1902 H           1 DN3       0.0579
     42 H18        -3.9237   54.8474   13.6719 H           1 DN3       0.0505
     43 H19         0.9960   49.3192   10.4445 H           1 DN3       0.2946
@<TRIPOS>BOND
     1     1     2   2
     2     2     3   1
     3     2    13  am
     4     3     4  ar
     5     3    12  ar
     6     4     5  ar
     7     5     6  ar
     8     6     7  ar
     9     7     8   1
    10     7    12  ar
    11     8     9   1
    12     9    10   1
    13     9    11   1
    14    13    14   1
    15    14    15  ar
    16    14    19  ar
    17    15    16  ar
    18    16    17  ar
    19    16    20   1
    20    17    18  ar
    21    18    19  ar
    22    20    21   2
    23    20    24   1
    24    21    22   1
    25    22    23   1
    26    23    24   2
    27     4    25   1
    28     5    26   1
    29     6    27   1
    30     8    28   1
    31     8    29   1
    32     9    30   1
    33    10    31   1
    34    10    32   1
    35    10    33   1
    36    11    34   1
    37    11    35   1
    38    11    36   1
    39    12    37   1
    40    13    38   1
    41    15    39   1
    42    17    40   1
    43    18    41   1
    44    19    42   1
    45    22    43   1
@<TRIPOS>SUBSTRUCTURE
     1  DN3      2

