@<TRIPOS>MOLECULE
4de2_ligand_034
    43    45
SMALL
GAST_HUCK
****
This file was generated by PARSER (from files_GN.cpp)

@<TRIPOS>ATOM
      1 O14        -7.2368   53.9101    8.2554 O.2         1 DN3      -0.3730
      2 C13        -6.9250   54.0787    9.4319 C.2         1 DN3       0.2307
      3 C15        -6.0475   53.1660   10.0136 C.ar        1 DN3       0.0495
      4 C16        -4.9676   52.6539    9.2546 C.ar        1 DN3      -0.0484
      5 C17        -4.0203   51.7994    9.8371 C.ar        1 DN3      -0.0627
      6 C18        -4.1483   51.4221   11.1841 C.ar        1 DN3      -0.0510
      7 C19        -5.2299   51.8880   11.9689 C.ar        1 DN3       0.0068
      8 C21        -5.3747   51.4716   13.3996 C.3         1 DN3       0.0024
      9 N22        -5.2802   52.5221   14.4766 N.4         1 DN3       0.2429
     10 C23        -4.2942   53.6105   14.2105 C.3         1 DN3      -0.0419
     11 C24        -6.5902   53.0637   14.9425 C.3         1 DN3      -0.0419
     12 C20        -6.1688   52.7601   11.3679 C.ar        1 DN3      -0.0351
     13 N12        -7.4137   55.1000   10.1376 N.am        1 DN3      -0.2334
     14 C10        -8.2033   56.1391    9.7187 C.ar        1 DN3       0.0663
     15 C11        -9.0243   56.7759   10.6802 C.ar        1 DN3      -0.0321
     16 C6         -9.7948   57.9245   10.3564 C.ar        1 DN3      -0.0043
     17 C7         -9.7464   58.4176    9.0350 C.ar        1 DN3      -0.0672
     18 C8         -8.9741   57.7741    8.0570 C.ar        1 DN3      -0.0745
     19 C9         -8.1933   56.6596    8.3996 C.ar        1 DN3      -0.0410
     20 C2        -10.5937   58.5730   11.3177 C.2         1 DN3       0.1452
     21 N1        -10.9644   59.8599   11.3340 N.2         1 DN3      -0.1437
     22 N5        -11.6937   59.9844   12.3500 N.pl3       1 DN3      -0.1036
     23 N4        -11.8364   58.9186   12.9464 N.2         1 DN3      -0.0518
     24 N3        -11.1848   58.0116   12.3741 N.2         1 DN3      -0.1756
     25 H1         -4.8254   52.9450    8.2847 H           1 DN3       0.0611
     26 H2         -3.2314   51.4689    9.2791 H           1 DN3       0.0611
     27 H3         -3.4372   50.8042   11.5866 H           1 DN3       0.0594
     28 H4         -4.6058   50.7349   13.6447 H           1 DN3       0.0980
     29 H5         -6.3231   50.9284   13.4833 H           1 DN3       0.0980
     30 H6         -4.9220   52.0398   15.3075 H           1 DN3       0.2042
     31 H7         -4.0773   54.1402   15.1352 H           1 DN3       0.0778
     32 H8         -4.6751   54.3234   13.4714 H           1 DN3       0.0778
     33 H9         -3.3565   53.1983   13.8378 H           1 DN3       0.0778
     34 H10        -7.2365   52.2458   15.2565 H           1 DN3       0.0778
     35 H11        -7.1004   53.6375   14.1675 H           1 DN3       0.0778
     36 H12        -6.4403   53.7059   15.8088 H           1 DN3       0.0778
     37 H13        -6.9567   53.0968   11.9173 H           1 DN3       0.0609
     38 H14        -7.2387   55.0685   11.0846 H           1 DN3       0.2251
     39 H15        -9.0308   56.4156   11.6394 H           1 DN3       0.0504
     40 H16       -10.2861   59.2482    8.7759 H           1 DN3       0.0498
     41 H17        -8.9558   58.1409    7.1028 H           1 DN3       0.0579
     42 H18        -7.5904   56.2600    7.6798 H           1 DN3       0.0505
     43 H19       -12.0150   60.8054   12.6704 H           1 DN3       0.2946
@<TRIPOS>BOND
     1     1     2   2
     2     2     3   1
     3     2    13  am
     4     3     4  ar
     5     3    12  ar
     6     4     5  ar
     7     5     6  ar
     8     6     7  ar
     9     7     8   1
    10     7    12  ar
    11     8     9   1
    12     9    10   1
    13     9    11   1
    14    13    14   1
    15    14    15  ar
    16    14    19  ar
    17    15    16  ar
    18    16    17  ar
    19    16    20   1
    20    17    18  ar
    21    18    19  ar
    22    20    21   2
    23    20    24   1
    24    21    22   1
    25    22    23   1
    26    23    24   2
    27     4    25   1
    28     5    26   1
    29     6    27   1
    30     8    28   1
    31     8    29   1
    32     9    30   1
    33    10    31   1
    34    10    32   1
    35    10    33   1
    36    11    34   1
    37    11    35   1
    38    11    36   1
    39    12    37   1
    40    13    38   1
    41    15    39   1
    42    17    40   1
    43    18    41   1
    44    19    42   1
    45    22    43   1
@<TRIPOS>SUBSTRUCTURE
     1  DN3      2

