@<TRIPOS>MOLECULE
4de2_ligand_044
    43    45
SMALL
GAST_HUCK
****
This file was generated by PARSER (from files_GN.cpp)

@<TRIPOS>ATOM
      1 O14        -1.5211   50.4240    6.2726 O.2         1 DN3      -0.3730
      2 C13        -1.7689   49.4840    7.0200 C.2         1 DN3       0.2307
      3 C15        -1.9586   48.2145    6.4737 C.ar        1 DN3       0.0495
      4 C16        -2.6050   48.0376    5.2233 C.ar        1 DN3      -0.0484
      5 C17        -2.7538   46.7600    4.6605 C.ar        1 DN3      -0.0627
      6 C18        -2.2303   45.6328    5.3154 C.ar        1 DN3      -0.0510
      7 C19        -1.5692   45.7693    6.5558 C.ar        1 DN3       0.0068
      8 C21        -0.9723   44.5782    7.2359 C.3         1 DN3       0.0024
      9 N22         0.4476   44.2505    6.8681 N.4         1 DN3       0.2429
     10 C23         0.6456   43.8698    5.4424 C.3         1 DN3      -0.0419
     11 C24         1.4458   45.2606    7.3215 C.3         1 DN3      -0.0419
     12 C20        -1.4764   47.0553    7.1352 C.ar        1 DN3      -0.0351
     13 N12        -1.9464   49.6810    8.3256 N.am        1 DN3      -0.2334
     14 C10        -1.7884   50.8424    9.0283 C.ar        1 DN3       0.0663
     15 C11        -0.6876   51.7104    8.8240 C.ar        1 DN3      -0.0321
     16 C6         -0.5683   52.9297    9.5296 C.ar        1 DN3      -0.0043
     17 C7         -1.5792   53.2832   10.4501 C.ar        1 DN3      -0.0672
     18 C8         -2.6401   52.3947   10.7126 C.ar        1 DN3      -0.0745
     19 C9         -2.7369   51.1774   10.0166 C.ar        1 DN3      -0.0410
     20 C2          0.5428   53.7668    9.2934 C.2         1 DN3       0.1452
     21 N1          0.5536   54.9932    8.7590 N.2         1 DN3      -0.1437
     22 N5          1.7703   55.3133    8.6829 N.pl3       1 DN3      -0.1036
     23 N4          2.5107   54.4198    9.1003 N.2         1 DN3      -0.0518
     24 N3          1.8267   53.4378    9.4873 N.2         1 DN3      -0.1756
     25 H1         -3.0029   48.8384    4.7236 H           1 DN3       0.0611
     26 H2         -3.2338   46.6485    3.7616 H           1 DN3       0.0611
     27 H3         -2.3291   44.7127    4.8773 H           1 DN3       0.0594
     28 H4         -1.5958   43.7012    7.0446 H           1 DN3       0.0980
     29 H5         -1.0175   44.7175    8.3194 H           1 DN3       0.0980
     30 H6          0.6643   43.4046    7.4005 H           1 DN3       0.2042
     31 H7          1.6577   43.4843    5.2938 H           1 DN3       0.0778
     32 H8          0.5014   44.7205    4.7725 H           1 DN3       0.0778
     33 H9         -0.0472   43.0760    5.1566 H           1 DN3       0.0778
     34 H10         1.3069   45.4931    8.3789 H           1 DN3       0.0778
     35 H11         1.3707   46.1869    6.7456 H           1 DN3       0.0778
     36 H12         2.4569   44.8622    7.2047 H           1 DN3       0.0778
     37 H13        -1.0014   47.1529    8.0377 H           1 DN3       0.0609
     38 H14        -2.3061   48.9222    8.8200 H           1 DN3       0.2251
     39 H15         0.0208   51.4535    8.1337 H           1 DN3       0.0504
     40 H16        -1.5349   54.1688   10.9617 H           1 DN3       0.0498
     41 H17        -3.3565   52.6423   11.4048 H           1 DN3       0.0579
     42 H18        -3.5262   50.5524   10.2020 H           1 DN3       0.0505
     43 H19         2.0810   56.0733    8.2312 H           1 DN3       0.2946
@<TRIPOS>BOND
     1     1     2   2
     2     2     3   1
     3     2    13  am
     4     3     4  ar
     5     3    12  ar
     6     4     5  ar
     7     5     6  ar
     8     6     7  ar
     9     7     8   1
    10     7    12  ar
    11     8     9   1
    12     9    10   1
    13     9    11   1
    14    13    14   1
    15    14    15  ar
    16    14    19  ar
    17    15    16  ar
    18    16    17  ar
    19    16    20   1
    20    17    18  ar
    21    18    19  ar
    22    20    21   2
    23    20    24   1
    24    21    22   1
    25    22    23   1
    26    23    24   2
    27     4    25   1
    28     5    26   1
    29     6    27   1
    30     8    28   1
    31     8    29   1
    32     9    30   1
    33    10    31   1
    34    10    32   1
    35    10    33   1
    36    11    34   1
    37    11    35   1
    38    11    36   1
    39    12    37   1
    40    13    38   1
    41    15    39   1
    42    17    40   1
    43    18    41   1
    44    19    42   1
    45    22    43   1
@<TRIPOS>SUBSTRUCTURE
     1  DN3      2

