@<TRIPOS>MOLECULE
4de2_ligand_014
    43    45
SMALL
GAST_HUCK
****
This file was generated by PARSER (from files_GN.cpp)

@<TRIPOS>ATOM
      1 O14        -1.4764   52.9991   13.3530 O.2         1 DN3      -0.3730
      2 C13        -1.9491   52.0707   12.7032 C.2         1 DN3       0.2307
      3 C15        -1.1003   51.2703   11.9529 C.ar        1 DN3       0.0495
      4 C16        -0.0800   51.8342   11.1512 C.ar        1 DN3      -0.0484
      5 C17         0.7509   51.0153   10.3665 C.ar        1 DN3      -0.0627
      6 C18         0.5944   49.6190   10.3977 C.ar        1 DN3      -0.0510
      7 C19        -0.3857   49.0221   11.2222 C.ar        1 DN3       0.0068
      8 C21        -0.4942   47.5379   11.3326 C.3         1 DN3       0.0024
      9 N22        -1.4363   46.8702   10.3777 N.4         1 DN3       0.2429
     10 C23        -2.8695   47.2341   10.5760 C.3         1 DN3      -0.0419
     11 C24        -1.0197   46.9768    8.9494 C.3         1 DN3      -0.0419
     12 C20        -1.2344   49.8603   11.9795 C.ar        1 DN3      -0.0351
     13 N12        -3.2598   51.8758   12.6138 N.am        1 DN3      -0.2334
     14 C10        -4.2138   52.6525   13.1919 C.ar        1 DN3       0.0663
     15 C11        -4.8768   53.6428   12.4367 C.ar        1 DN3      -0.0321
     16 C6         -5.8329   54.4987   13.0363 C.ar        1 DN3      -0.0043
     17 C7         -6.1296   54.3209   14.4083 C.ar        1 DN3      -0.0672
     18 C8         -5.5229   53.2905   15.1476 C.ar        1 DN3      -0.0745
     19 C9         -4.5710   52.4539   14.5399 C.ar        1 DN3      -0.0410
     20 C2         -6.4910   55.5000   12.2808 C.2         1 DN3       0.1452
     21 N1         -6.6185   55.5603   10.9513 N.2         1 DN3      -0.1437
     22 N5         -7.2854   56.6015   10.7200 N.pl3       1 DN3      -0.1036
     23 N4         -7.5857   57.1966   11.7534 N.2         1 DN3      -0.0518
     24 N3         -7.1345   56.5767   12.7495 N.2         1 DN3      -0.1756
     25 H1          0.0495   52.8487   11.1084 H           1 DN3       0.0611
     26 H2          1.4760   51.4337    9.7780 H           1 DN3       0.0611
     27 H3          1.2138   49.0367    9.8288 H           1 DN3       0.0594
     28 H4         -0.7886   47.2756   12.3540 H           1 DN3       0.0980
     29 H5          0.4982   47.0947   11.2096 H           1 DN3       0.0980
     30 H6         -1.3795   45.8743   10.6036 H           1 DN3       0.2042
     31 H7         -3.5096   46.5765    9.9844 H           1 DN3       0.0778
     32 H8         -3.0645   48.2669   10.2790 H           1 DN3       0.0778
     33 H9         -3.1541   47.1109   11.6230 H           1 DN3       0.0778
     34 H10         0.0162   46.6526    8.8303 H           1 DN3       0.0778
     35 H11        -1.1097   48.0015    8.5818 H           1 DN3       0.0778
     36 H12        -1.6383   46.3285    8.3256 H           1 DN3       0.0778
     37 H13        -1.9417   49.4322   12.5837 H           1 DN3       0.0609
     38 H14        -3.5633   51.1930   11.9937 H           1 DN3       0.2251
     39 H15        -4.6349   53.7508   11.4481 H           1 DN3       0.0504
     40 H16        -6.8077   54.9244   14.8790 H           1 DN3       0.0498
     41 H17        -5.7790   53.1477   16.1258 H           1 DN3       0.0579
     42 H18        -4.1395   51.7033   15.0832 H           1 DN3       0.0505
     43 H19        -7.5147   56.8947    9.8622 H           1 DN3       0.2946
@<TRIPOS>BOND
     1     1     2   2
     2     2     3   1
     3     2    13  am
     4     3     4  ar
     5     3    12  ar
     6     4     5  ar
     7     5     6  ar
     8     6     7  ar
     9     7     8   1
    10     7    12  ar
    11     8     9   1
    12     9    10   1
    13     9    11   1
    14    13    14   1
    15    14    15  ar
    16    14    19  ar
    17    15    16  ar
    18    16    17  ar
    19    16    20   1
    20    17    18  ar
    21    18    19  ar
    22    20    21   2
    23    20    24   1
    24    21    22   1
    25    22    23   1
    26    23    24   2
    27     4    25   1
    28     5    26   1
    29     6    27   1
    30     8    28   1
    31     8    29   1
    32     9    30   1
    33    10    31   1
    34    10    32   1
    35    10    33   1
    36    11    34   1
    37    11    35   1
    38    11    36   1
    39    12    37   1
    40    13    38   1
    41    15    39   1
    42    17    40   1
    43    18    41   1
    44    19    42   1
    45    22    43   1
@<TRIPOS>SUBSTRUCTURE
     1  DN3      2

