@<TRIPOS>MOLECULE
4de2_ligand_001
    43    45
SMALL
GAST_HUCK
****
This file was generated by PARSER (from files_GN.cpp)

@<TRIPOS>ATOM
      1 O14        -1.5161   53.5790   13.5817 O.2         1 DN3      -0.3730
      2 C13        -2.5200   53.1959   13.0025 C.2         1 DN3       0.2307
      3 C15        -3.7429   53.3850   13.6130 C.ar        1 DN3       0.0495
      4 C16        -4.3569   52.3465   14.3438 C.ar        1 DN3      -0.0484
      5 C17        -5.6404   52.5365   14.8959 C.ar        1 DN3      -0.0627
      6 C18        -6.3333   53.7379   14.6741 C.ar        1 DN3      -0.0510
      7 C19        -5.7410   54.7864   13.9338 C.ar        1 DN3       0.0068
      8 C21        -6.5084   56.0170   13.5784 C.3         1 DN3       0.0024
      9 N22        -6.9515   56.2033   12.1402 N.4         1 DN3       0.2429
     10 C23        -6.6347   55.1236   11.1486 C.3         1 DN3      -0.0419
     11 C24        -8.3909   56.5955   12.0182 C.3         1 DN3      -0.0419
     12 C20        -4.4207   54.6076   13.4486 C.ar        1 DN3      -0.0351
     13 N12        -2.4828   52.6517   11.7925 N.am        1 DN3      -0.2334
     14 C10        -1.3370   52.4004   11.1071 C.ar        1 DN3       0.0663
     15 C11        -0.6038   53.4508   10.5105 C.ar        1 DN3      -0.0321
     16 C6          0.6260   53.1873    9.8664 C.ar        1 DN3      -0.0043
     17 C7          1.1151   51.8628    9.8301 C.ar        1 DN3      -0.0672
     18 C8          0.3628   50.8096   10.3868 C.ar        1 DN3      -0.0745
     19 C9         -0.8639   51.0779   11.0150 C.ar        1 DN3      -0.0410
     20 C2          1.3586   54.2320    9.2705 C.2         1 DN3       0.1452
     21 N1          2.6869   54.3468    9.2169 N.2         1 DN3      -0.1437
     22 N5          2.9031   55.4207    8.6060 N.pl3       1 DN3      -0.1036
     23 N4          1.8629   55.9749    8.2570 N.2         1 DN3      -0.0518
     24 N3          0.8693   55.2977    8.6304 N.2         1 DN3      -0.1756
     25 H1         -3.8814   51.4501   14.4859 H           1 DN3       0.0611
     26 H2         -6.0831   51.7896   15.4322 H           1 DN3       0.0611
     27 H3         -7.2870   53.8242   15.0271 H           1 DN3       0.0594
     28 H4         -5.8761   56.8727   13.8349 H           1 DN3       0.0980
     29 H5         -7.3652   56.0956   14.2564 H           1 DN3       0.0980
     30 H6         -6.4194   57.0104   11.8105 H           1 DN3       0.2042
     31 H7         -6.9410   55.4219   10.1422 H           1 DN3       0.0778
     32 H8         -7.1406   54.1916   11.4141 H           1 DN3       0.0778
     33 H9         -5.5623   54.9437   11.0922 H           1 DN3       0.0778
     34 H10        -8.5921   57.4912   12.6067 H           1 DN3       0.0778
     35 H11        -9.0448   55.7927   12.3712 H           1 DN3       0.0778
     36 H12        -8.6508   56.8272   10.9836 H           1 DN3       0.0778
     37 H13        -3.9796   55.3596   12.9089 H           1 DN3       0.0609
     38 H14        -3.3113   52.3186   11.4146 H           1 DN3       0.2251
     39 H15        -0.9638   54.4103   10.5697 H           1 DN3       0.0504
     40 H16         2.0044   51.6462    9.3748 H           1 DN3       0.0498
     41 H17         0.7103   49.8503   10.3332 H           1 DN3       0.0579
     42 H18        -1.3977   50.3094   11.4304 H           1 DN3       0.0505
     43 H19         3.7573   55.7703    8.4643 H           1 DN3       0.2946
@<TRIPOS>BOND
     1     1     2   2
     2     2     3   1
     3     2    13  am
     4     3     4  ar
     5     3    12  ar
     6     4     5  ar
     7     5     6  ar
     8     6     7  ar
     9     7     8   1
    10     7    12  ar
    11     8     9   1
    12     9    10   1
    13     9    11   1
    14    13    14   1
    15    14    15  ar
    16    14    19  ar
    17    15    16  ar
    18    16    17  ar
    19    16    20   1
    20    17    18  ar
    21    18    19  ar
    22    20    21   2
    23    20    24   1
    24    21    22   1
    25    22    23   1
    26    23    24   2
    27     4    25   1
    28     5    26   1
    29     6    27   1
    30     8    28   1
    31     8    29   1
    32     9    30   1
    33    10    31   1
    34    10    32   1
    35    10    33   1
    36    11    34   1
    37    11    35   1
    38    11    36   1
    39    12    37   1
    40    13    38   1
    41    15    39   1
    42    17    40   1
    43    18    41   1
    44    19    42   1
    45    22    43   1
@<TRIPOS>SUBSTRUCTURE
     1  DN3      2

