@<TRIPOS>MOLECULE
4de2_ligand_032
    43    45
SMALL
GAST_HUCK
****
This file was generated by PARSER (from files_GN.cpp)

@<TRIPOS>ATOM
      1 O14        -8.4660   55.4168   13.6228 O.2         1 DN3      -0.3730
      2 C13        -8.5207   55.1971   12.4017 C.2         1 DN3       0.2307
      3 C15        -9.6556   55.5671   11.6917 C.ar        1 DN3       0.0495
      4 C16       -10.0877   54.8617   10.5325 C.ar        1 DN3      -0.0484
      5 C17       -11.2345   55.2584    9.8223 C.ar        1 DN3      -0.0627
      6 C18       -11.9585   56.3863   10.2273 C.ar        1 DN3      -0.0510
      7 C19       -11.5572   57.1297   11.3527 C.ar        1 DN3       0.0068
      8 C21       -12.2987   58.3481   11.7654 C.3         1 DN3       0.0024
      9 N22       -11.4971   59.6160   11.6470 N.4         1 DN3       0.2429
     10 C23       -11.1917   60.0019   10.2348 C.3         1 DN3      -0.0419
     11 C24       -12.1070   60.7519   12.3994 C.3         1 DN3      -0.0419
     12 C20       -10.4191   56.7045   12.0801 C.ar        1 DN3      -0.0351
     13 N12        -7.5053   54.5533   11.8204 N.am        1 DN3      -0.2334
     14 C10        -6.2624   54.2965   12.3155 C.ar        1 DN3       0.0663
     15 C11        -5.7569   52.9831   12.2389 C.ar        1 DN3      -0.0321
     16 C6         -4.4028   52.7052   12.5704 C.ar        1 DN3      -0.0043
     17 C7         -3.5665   53.7745   12.9640 C.ar        1 DN3      -0.0672
     18 C8         -4.0774   55.0751   13.0716 C.ar        1 DN3      -0.0745
     19 C9         -5.4145   55.3413   12.7549 C.ar        1 DN3      -0.0410
     20 C2         -3.8960   51.3935   12.5038 C.2         1 DN3       0.1452
     21 N1         -4.4910   50.2815   12.9819 N.2         1 DN3      -0.1437
     22 N5         -3.6628   49.3565   12.7690 N.pl3       1 DN3      -0.1036
     23 N4         -2.6242   49.7607   12.2355 N.2         1 DN3      -0.0518
     24 N3         -2.6957   51.0029   12.0487 N.2         1 DN3      -0.1756
     25 H1         -9.5870   54.0387   10.1993 H           1 DN3       0.0611
     26 H2        -11.5325   54.7240    8.9940 H           1 DN3       0.0611
     27 H3        -12.7798   56.6622    9.6844 H           1 DN3       0.0594
     28 H4        -12.5963   58.1962   12.8115 H           1 DN3       0.0980
     29 H5        -13.2260   58.4590   11.1909 H           1 DN3       0.0980
     30 H6        -10.5977   59.4381   12.1000 H           1 DN3       0.2042
     31 H7        -10.5777   60.9023   10.2093 H           1 DN3       0.0778
     32 H8        -12.1100   60.1913    9.6763 H           1 DN3       0.0778
     33 H9        -10.6330   59.2127    9.7359 H           1 DN3       0.0778
     34 H10       -12.3208   60.4698   13.4349 H           1 DN3       0.0778
     35 H11       -13.0373   61.0886   11.9329 H           1 DN3       0.0778
     36 H12       -11.4098   61.5924   12.4333 H           1 DN3       0.0778
     37 H13       -10.1362   57.2513   12.8981 H           1 DN3       0.0609
     38 H14        -7.6625   54.2582   10.9038 H           1 DN3       0.2251
     39 H15        -6.3637   52.2196   11.9218 H           1 DN3       0.0504
     40 H16        -2.5869   53.6069   13.2030 H           1 DN3       0.0498
     41 H17        -3.4683   55.8385   13.3691 H           1 DN3       0.0579
     42 H18        -5.7582   56.2996   12.7652 H           1 DN3       0.0505
     43 H19        -3.7898   48.4781   13.0655 H           1 DN3       0.2946
@<TRIPOS>BOND
     1     1     2   2
     2     2     3   1
     3     2    13  am
     4     3     4  ar
     5     3    12  ar
     6     4     5  ar
     7     5     6  ar
     8     6     7  ar
     9     7     8   1
    10     7    12  ar
    11     8     9   1
    12     9    10   1
    13     9    11   1
    14    13    14   1
    15    14    15  ar
    16    14    19  ar
    17    15    16  ar
    18    16    17  ar
    19    16    20   1
    20    17    18  ar
    21    18    19  ar
    22    20    21   2
    23    20    24   1
    24    21    22   1
    25    22    23   1
    26    23    24   2
    27     4    25   1
    28     5    26   1
    29     6    27   1
    30     8    28   1
    31     8    29   1
    32     9    30   1
    33    10    31   1
    34    10    32   1
    35    10    33   1
    36    11    34   1
    37    11    35   1
    38    11    36   1
    39    12    37   1
    40    13    38   1
    41    15    39   1
    42    17    40   1
    43    18    41   1
    44    19    42   1
    45    22    43   1
@<TRIPOS>SUBSTRUCTURE
     1  DN3      2

