@<TRIPOS>MOLECULE
4de2_ligand_041
    43    45
SMALL
GAST_HUCK
****
This file was generated by PARSER (from files_GN.cpp)

@<TRIPOS>ATOM
      1 O14        -8.2556   53.1784    9.3187 O.2         1 DN3      -0.3730
      2 C13        -7.0364   53.3414    9.1870 C.2         1 DN3       0.2307
      3 C15        -6.1904   52.3121    9.5700 C.ar        1 DN3       0.0495
      4 C16        -6.5141   51.5071   10.6908 C.ar        1 DN3      -0.0484
      5 C17        -5.6771   50.4510   11.0971 C.ar        1 DN3      -0.0627
      6 C18        -4.5033   50.1786   10.3858 C.ar        1 DN3      -0.0510
      7 C19        -4.1500   50.9442    9.2529 C.ar        1 DN3       0.0068
      8 C21        -2.9433   50.5724    8.4582 C.3         1 DN3       0.0024
      9 N22        -3.2410   49.8333    7.1868 N.4         1 DN3       0.2429
     10 C23        -1.9976   49.5338    6.4114 C.3         1 DN3      -0.0419
     11 C24        -4.0495   48.5897    7.3589 C.3         1 DN3      -0.0419
     12 C20        -4.9905   52.0168    8.8609 C.ar        1 DN3      -0.0351
     13 N12        -6.5826   54.5024    8.6890 N.am        1 DN3      -0.2334
     14 C10        -7.3543   55.5927    8.4095 C.ar        1 DN3       0.0663
     15 C11        -7.5533   56.0344    7.0778 C.ar        1 DN3      -0.0321
     16 C6         -8.4782   57.0671    6.7854 C.ar        1 DN3      -0.0043
     17 C7         -9.1534   57.7020    7.8571 C.ar        1 DN3      -0.0672
     18 C8         -8.8907   57.3332    9.1839 C.ar        1 DN3      -0.0745
     19 C9         -8.0113   56.2791    9.4594 C.ar        1 DN3      -0.0410
     20 C2         -8.7521   57.4506    5.4518 C.2         1 DN3       0.1452
     21 N1         -7.8690   57.7624    4.4971 N.2         1 DN3      -0.1437
     22 N5         -8.5559   58.0080    3.4680 N.pl3       1 DN3      -0.1036
     23 N4         -9.7621   57.8515    3.6634 N.2         1 DN3      -0.0518
     24 N3         -9.9525   57.4988    4.8595 N.2         1 DN3      -0.1756
     25 H1         -7.3597   51.6791   11.2367 H           1 DN3       0.0611
     26 H2         -5.9357   49.8670   11.9004 H           1 DN3       0.0611
     27 H3         -3.9207   49.3922   10.6844 H           1 DN3       0.0594
     28 H4         -2.2656   49.9770    9.0742 H           1 DN3       0.0980
     29 H5         -2.4116   51.4949    8.2158 H           1 DN3       0.0980
     30 H6         -3.7932   50.4693    6.6092 H           1 DN3       0.2042
     31 H7         -2.2393   49.0968    5.4387 H           1 DN3       0.0778
     32 H8         -1.3769   48.8244    6.9620 H           1 DN3       0.0778
     33 H9         -1.4204   50.4406    6.2294 H           1 DN3       0.0778
     34 H10        -5.0208   48.8321    7.7935 H           1 DN3       0.0778
     35 H11        -3.5446   47.8727    8.0105 H           1 DN3       0.0778
     36 H12        -4.2361   48.1046    6.3978 H           1 DN3       0.0778
     37 H13        -4.7454   52.5639    8.0358 H           1 DN3       0.0609
     38 H14        -5.6254   54.5885    8.5707 H           1 DN3       0.2251
     39 H15        -7.0777   55.5401    6.3140 H           1 DN3       0.0504
     40 H16        -9.8211   58.4521    7.6814 H           1 DN3       0.0498
     41 H17        -9.3582   57.8212    9.9555 H           1 DN3       0.0579
     42 H18        -7.8624   55.9924   10.4270 H           1 DN3       0.0505
     43 H19        -8.1760   58.1784    2.6290 H           1 DN3       0.2946
@<TRIPOS>BOND
     1     1     2   2
     2     2     3   1
     3     2    13  am
     4     3     4  ar
     5     3    12  ar
     6     4     5  ar
     7     5     6  ar
     8     6     7  ar
     9     7     8   1
    10     7    12  ar
    11     8     9   1
    12     9    10   1
    13     9    11   1
    14    13    14   1
    15    14    15  ar
    16    14    19  ar
    17    15    16  ar
    18    16    17  ar
    19    16    20   1
    20    17    18  ar
    21    18    19  ar
    22    20    21   2
    23    20    24   1
    24    21    22   1
    25    22    23   1
    26    23    24   2
    27     4    25   1
    28     5    26   1
    29     6    27   1
    30     8    28   1
    31     8    29   1
    32     9    30   1
    33    10    31   1
    34    10    32   1
    35    10    33   1
    36    11    34   1
    37    11    35   1
    38    11    36   1
    39    12    37   1
    40    13    38   1
    41    15    39   1
    42    17    40   1
    43    18    41   1
    44    19    42   1
    45    22    43   1
@<TRIPOS>SUBSTRUCTURE
     1  DN3      2

