@<TRIPOS>MOLECULE
4de2_ligand_012
    43    45
SMALL
GAST_HUCK
****
This file was generated by PARSER (from files_GN.cpp)

@<TRIPOS>ATOM
      1 O14        -7.0125   48.9737   10.7296 O.2         1 DN3      -0.3730
      2 C13        -6.3061   49.7117   11.4088 C.2         1 DN3       0.2307
      3 C15        -6.9073   50.7419   12.1533 C.ar        1 DN3       0.0495
      4 C16        -8.2496   51.1346   11.9070 C.ar        1 DN3      -0.0484
      5 C17        -8.8714   52.1416   12.6662 C.ar        1 DN3      -0.0627
      6 C18        -8.1543   52.8083   13.6717 C.ar        1 DN3      -0.0510
      7 C19        -6.8055   52.4816   13.9242 C.ar        1 DN3       0.0068
      8 C21        -6.0038   53.2434   14.9282 C.3         1 DN3       0.0024
      9 N22        -5.4049   54.5359   14.4532 N.4         1 DN3       0.2429
     10 C23        -4.5384   54.3949   13.2456 C.3         1 DN3      -0.0419
     11 C24        -6.3712   55.6632   14.3246 C.3         1 DN3      -0.0419
     12 C20        -6.2118   51.4348   13.1801 C.ar        1 DN3      -0.0351
     13 N12        -4.9975   49.4735   11.4822 N.am        1 DN3      -0.2334
     14 C10        -4.2548   48.4860   10.8971 C.ar        1 DN3       0.0663
     15 C11        -3.1815   47.9622   11.6509 C.ar        1 DN3      -0.0321
     16 C6         -2.3630   46.9214   11.1509 C.ar        1 DN3      -0.0043
     17 C7         -2.6157   46.4350    9.8468 C.ar        1 DN3      -0.0672
     18 C8         -3.6531   46.9769    9.0675 C.ar        1 DN3      -0.0745
     19 C9         -4.4678   47.9975    9.5878 C.ar        1 DN3      -0.0410
     20 C2         -1.3288   46.3697   11.9458 C.2         1 DN3       0.1452
     21 N1         -1.0716   46.6263   13.2341 N.2         1 DN3      -0.1437
     22 N5         -0.0787   45.9171   13.5320 N.pl3       1 DN3      -0.1036
     23 N4          0.3117   45.2463   12.5793 N.2         1 DN3      -0.0518
     24 N3         -0.4082   45.4707   11.5737 N.2         1 DN3      -0.1756
     25 H1         -8.7936   50.6957   11.1606 H           1 DN3       0.0611
     26 H2         -9.8453   52.3938   12.4825 H           1 DN3       0.0611
     27 H3         -8.6256   53.5336   14.2176 H           1 DN3       0.0594
     28 H4         -5.1776   52.6218   15.2831 H           1 DN3       0.0980
     29 H5         -6.6191   53.4222   15.8139 H           1 DN3       0.0980
     30 H6         -4.7740   54.8284   15.2008 H           1 DN3       0.2042
     31 H7         -4.0079   55.3289   13.0445 H           1 DN3       0.0778
     32 H8         -5.1255   54.1359   12.3619 H           1 DN3       0.0778
     33 H9         -3.7861   53.6196   13.4069 H           1 DN3       0.0778
     34 H10        -6.8918   55.8174   15.2711 H           1 DN3       0.0778
     35 H11        -7.1041   55.4771   13.5382 H           1 DN3       0.0778
     36 H12        -5.8490   56.5930   14.0917 H           1 DN3       0.0778
     37 H13        -5.2492   51.1821   13.4050 H           1 DN3       0.0609
     38 H14        -4.5058   50.0272   12.1053 H           1 DN3       0.2251
     39 H15        -3.0137   48.3310   12.5918 H           1 DN3       0.0504
     40 H16        -2.0507   45.6786    9.4523 H           1 DN3       0.0498
     41 H17        -3.8200   46.6209    8.1233 H           1 DN3       0.0579
     42 H18        -5.2021   48.3915    8.9970 H           1 DN3       0.0505
     43 H19         0.3039   45.8847   14.3845 H           1 DN3       0.2946
@<TRIPOS>BOND
     1     1     2   2
     2     2     3   1
     3     2    13  am
     4     3     4  ar
     5     3    12  ar
     6     4     5  ar
     7     5     6  ar
     8     6     7  ar
     9     7     8   1
    10     7    12  ar
    11     8     9   1
    12     9    10   1
    13     9    11   1
    14    13    14   1
    15    14    15  ar
    16    14    19  ar
    17    15    16  ar
    18    16    17  ar
    19    16    20   1
    20    17    18  ar
    21    18    19  ar
    22    20    21   2
    23    20    24   1
    24    21    22   1
    25    22    23   1
    26    23    24   2
    27     4    25   1
    28     5    26   1
    29     6    27   1
    30     8    28   1
    31     8    29   1
    32     9    30   1
    33    10    31   1
    34    10    32   1
    35    10    33   1
    36    11    34   1
    37    11    35   1
    38    11    36   1
    39    12    37   1
    40    13    38   1
    41    15    39   1
    42    17    40   1
    43    18    41   1
    44    19    42   1
    45    22    43   1
@<TRIPOS>SUBSTRUCTURE
     1  DN3      2

