@<TRIPOS>MOLECULE
4de2_ligand_031
    43    45
SMALL
GAST_HUCK
****
This file was generated by PARSER (from files_GN.cpp)

@<TRIPOS>ATOM
      1 O14        -8.2580   56.0082   13.7373 O.2         1 DN3      -0.3730
      2 C13        -8.0459   55.7697   12.5529 C.2         1 DN3       0.2307
      3 C15        -8.6095   56.5961   11.5653 C.ar        1 DN3       0.0495
      4 C16        -9.4943   57.6548   11.9080 C.ar        1 DN3      -0.0484
      5 C17       -10.0450   58.5060   10.9319 C.ar        1 DN3      -0.0627
      6 C18        -9.7385   58.3051    9.5752 C.ar        1 DN3      -0.0510
      7 C19        -8.8862   57.2521    9.1754 C.ar        1 DN3       0.0068
      8 C21        -8.6015   57.0080    7.7251 C.3         1 DN3       0.0024
      9 N22        -9.3488   55.8783    7.0770 N.4         1 DN3       0.2429
     10 C23        -8.9030   54.5078    7.4704 C.3         1 DN3      -0.0419
     11 C24       -10.8299   56.0272    7.1521 C.3         1 DN3      -0.0419
     12 C20        -8.3199   56.4299   10.1797 C.ar        1 DN3      -0.0351
     13 N12        -7.2277   54.7612   12.2367 N.am        1 DN3      -0.2334
     14 C10        -6.5418   53.8772   13.0407 C.ar        1 DN3       0.0663
     15 C11        -5.3186   53.3745   12.5366 C.ar        1 DN3      -0.0321
     16 C6         -4.5141   52.5091   13.3144 C.ar        1 DN3      -0.0043
     17 C7         -4.9494   52.1304   14.6072 C.ar        1 DN3      -0.0672
     18 C8         -6.1899   52.5778   15.0886 C.ar        1 DN3      -0.0745
     19 C9         -6.9872   53.4257   14.3068 C.ar        1 DN3      -0.0410
     20 C2         -3.3095   52.0087   12.8051 C.2         1 DN3       0.1452
     21 N1         -2.1094   52.0654   13.4075 N.2         1 DN3      -0.1437
     22 N5         -1.3385   51.4435   12.6260 N.pl3       1 DN3      -0.1036
     23 N4         -1.9134   51.0176   11.6150 N.2         1 DN3      -0.0518
     24 N3         -3.1347   51.3244   11.6548 N.2         1 DN3      -0.1756
     25 H1         -9.7601   57.8182   12.8771 H           1 DN3       0.0611
     26 H2        -10.6771   59.2679   11.1991 H           1 DN3       0.0611
     27 H3        -10.1491   58.9313    8.8753 H           1 DN3       0.0594
     28 H4         -7.5290   56.8460    7.6096 H           1 DN3       0.0980
     29 H5         -8.8118   57.9187    7.1516 H           1 DN3       0.0980
     30 H6         -9.1109   55.9538    6.0838 H           1 DN3       0.2042
     31 H7         -9.3256   53.7825    6.7660 H           1 DN3       0.0778
     32 H8         -9.2272   54.2391    8.4766 H           1 DN3       0.0778
     33 H9         -7.8155   54.4120    7.4154 H           1 DN3       0.0778
     34 H10       -11.1243   57.0119    6.7736 H           1 DN3       0.0778
     35 H11       -11.1982   55.9178    8.1775 H           1 DN3       0.0778
     36 H12       -11.3105   55.2703    6.5242 H           1 DN3       0.0778
     37 H13        -7.6714   55.7064    9.8701 H           1 DN3       0.0609
     38 H14        -7.0047   54.6844   11.2898 H           1 DN3       0.2251
     39 H15        -4.9921   53.6669   11.6125 H           1 DN3       0.0504
     40 H16        -4.3983   51.4824   15.1675 H           1 DN3       0.0498
     41 H17        -6.5319   52.2543   15.9853 H           1 DN3       0.0579
     42 H18        -7.9098   53.6848   14.6448 H           1 DN3       0.0505
     43 H19        -0.4186   51.3391   12.7754 H           1 DN3       0.2946
@<TRIPOS>BOND
     1     1     2   2
     2     2     3   1
     3     2    13  am
     4     3     4  ar
     5     3    12  ar
     6     4     5  ar
     7     5     6  ar
     8     6     7  ar
     9     7     8   1
    10     7    12  ar
    11     8     9   1
    12     9    10   1
    13     9    11   1
    14    13    14   1
    15    14    15  ar
    16    14    19  ar
    17    15    16  ar
    18    16    17  ar
    19    16    20   1
    20    17    18  ar
    21    18    19  ar
    22    20    21   2
    23    20    24   1
    24    21    22   1
    25    22    23   1
    26    23    24   2
    27     4    25   1
    28     5    26   1
    29     6    27   1
    30     8    28   1
    31     8    29   1
    32     9    30   1
    33    10    31   1
    34    10    32   1
    35    10    33   1
    36    11    34   1
    37    11    35   1
    38    11    36   1
    39    12    37   1
    40    13    38   1
    41    15    39   1
    42    17    40   1
    43    18    41   1
    44    19    42   1
    45    22    43   1
@<TRIPOS>SUBSTRUCTURE
     1  DN3      2

