@<TRIPOS>MOLECULE
4de2_ligand_021
    43    45
SMALL
GAST_HUCK
****
This file was generated by PARSER (from files_GN.cpp)

@<TRIPOS>ATOM
      1 O14       -10.0070   55.2015   10.7532 O.2         1 DN3      -0.3730
      2 C13       -10.8776   54.3804   10.4864 C.2         1 DN3       0.2307
      3 C15       -12.0593   54.8136    9.8478 C.ar        1 DN3       0.0495
      4 C16       -13.1086   53.9147    9.5185 C.ar        1 DN3      -0.0484
      5 C17       -14.2854   54.3552    8.8880 C.ar        1 DN3      -0.0627
      6 C18       -14.4443   55.7093    8.5588 C.ar        1 DN3      -0.0510
      7 C19       -13.4344   56.6454    8.8675 C.ar        1 DN3       0.0068
      8 C21       -13.6304   58.0902    8.5262 C.3         1 DN3       0.0024
      9 N22       -13.5700   58.5250    7.0773 N.4         1 DN3       0.2429
     10 C23       -13.2105   57.4873    6.0698 C.3         1 DN3      -0.0419
     11 C24       -14.7564   59.3243    6.6456 C.3         1 DN3      -0.0419
     12 C20       -12.2620   56.1832    9.5155 C.ar        1 DN3      -0.0351
     13 N12       -10.6459   53.0935   10.7541 N.am        1 DN3      -0.2334
     14 C10        -9.5556   52.4924   11.3362 C.ar        1 DN3       0.0663
     15 C11        -8.7949   53.0495   12.3950 C.ar        1 DN3      -0.0321
     16 C6         -7.6704   52.3690   12.9190 C.ar        1 DN3      -0.0043
     17 C7         -7.3094   51.1121   12.3923 C.ar        1 DN3      -0.0672
     18 C8         -8.0858   50.5271   11.3777 C.ar        1 DN3      -0.0745
     19 C9         -9.2069   51.2057   10.8671 C.ar        1 DN3      -0.0410
     20 C2         -6.9177   52.9359   13.9591 C.2         1 DN3       0.1452
     21 N1         -5.8373   53.7086   13.8298 N.2         1 DN3      -0.1437
     22 N5         -5.5109   54.0083   15.0083 N.pl3       1 DN3      -0.1036
     23 N4         -6.2811   53.5296   15.8405 N.2         1 DN3      -0.0518
     24 N3         -7.1658   52.8411   15.2684 N.2         1 DN3      -0.1756
     25 H1        -13.0403   52.9192    9.7338 H           1 DN3       0.0611
     26 H2        -15.0285   53.6876    8.6689 H           1 DN3       0.0611
     27 H3        -15.3058   56.0103    8.0937 H           1 DN3       0.0594
     28 H4        -12.8692   58.6840    9.0411 H           1 DN3       0.0980
     29 H5        -14.5781   58.3872    8.9882 H           1 DN3       0.0980
     30 H6        -12.7890   59.1827    7.0349 H           1 DN3       0.2042
     31 H7        -13.0064   57.9552    5.1070 H           1 DN3       0.0778
     32 H8        -14.0152   56.7615    5.9435 H           1 DN3       0.0778
     33 H9        -12.3028   56.9655    6.3758 H           1 DN3       0.0778
     34 H10       -14.8835   60.1906    7.2996 H           1 DN3       0.0778
     35 H11       -15.6688   58.7235    6.6782 H           1 DN3       0.0778
     36 H12       -14.6244   59.7043    5.6298 H           1 DN3       0.0778
     37 H13       -11.5409   56.8699    9.7465 H           1 DN3       0.0609
     38 H14       -11.3067   52.4749   10.4125 H           1 DN3       0.2251
     39 H15        -9.0655   53.9503   12.7987 H           1 DN3       0.0504
     40 H16        -6.4961   50.6047   12.7548 H           1 DN3       0.0498
     41 H17        -7.8352   49.6062   11.0121 H           1 DN3       0.0579
     42 H18        -9.7548   50.7630   10.1257 H           1 DN3       0.0505
     43 H19        -4.8094   54.5877   15.2255 H           1 DN3       0.2946
@<TRIPOS>BOND
     1     1     2   2
     2     2     3   1
     3     2    13  am
     4     3     4  ar
     5     3    12  ar
     6     4     5  ar
     7     5     6  ar
     8     6     7  ar
     9     7     8   1
    10     7    12  ar
    11     8     9   1
    12     9    10   1
    13     9    11   1
    14    13    14   1
    15    14    15  ar
    16    14    19  ar
    17    15    16  ar
    18    16    17  ar
    19    16    20   1
    20    17    18  ar
    21    18    19  ar
    22    20    21   2
    23    20    24   1
    24    21    22   1
    25    22    23   1
    26    23    24   2
    27     4    25   1
    28     5    26   1
    29     6    27   1
    30     8    28   1
    31     8    29   1
    32     9    30   1
    33    10    31   1
    34    10    32   1
    35    10    33   1
    36    11    34   1
    37    11    35   1
    38    11    36   1
    39    12    37   1
    40    13    38   1
    41    15    39   1
    42    17    40   1
    43    18    41   1
    44    19    42   1
    45    22    43   1
@<TRIPOS>SUBSTRUCTURE
     1  DN3      2

