@<TRIPOS>MOLECULE
4de2_ligand_011
    43    45
SMALL
GAST_HUCK
****
This file was generated by PARSER (from files_GN.cpp)

@<TRIPOS>ATOM
      1 O14        -3.8229   50.4795   10.6840 O.2         1 DN3      -0.3730
      2 C13        -2.9696   50.7791   11.5150 C.2         1 DN3       0.2307
      3 C15        -2.9292   52.0804   12.0184 C.ar        1 DN3       0.0495
      4 C16        -1.7048   52.6496   12.4570 C.ar        1 DN3      -0.0484
      5 C17        -1.6530   53.9669   12.9454 C.ar        1 DN3      -0.0627
      6 C18        -2.8243   54.7265   13.0463 C.ar        1 DN3      -0.0510
      7 C19        -4.0634   54.2025   12.6095 C.ar        1 DN3       0.0068
      8 C21        -5.3099   55.0205   12.6410 C.3         1 DN3       0.0024
      9 N22        -6.4025   54.3997   13.4591 N.4         1 DN3       0.2429
     10 C23        -6.1020   54.3830   14.9220 C.3         1 DN3      -0.0419
     11 C24        -7.7424   54.9958   13.1747 C.3         1 DN3      -0.0419
     12 C20        -4.0940   52.8859   12.0888 C.ar        1 DN3      -0.0351
     13 N12        -2.1403   49.8534   11.9865 N.am        1 DN3      -0.2334
     14 C10        -2.0802   48.5376   11.6303 C.ar        1 DN3       0.0663
     15 C11        -1.7712   48.1459   10.3086 C.ar        1 DN3      -0.0321
     16 C6         -1.7118   46.7722    9.9535 C.ar        1 DN3      -0.0043
     17 C7         -1.9831   45.8037   10.9446 C.ar        1 DN3      -0.0672
     18 C8         -2.2481   46.1911   12.2746 C.ar        1 DN3      -0.0745
     19 C9         -2.2774   47.5519   12.6156 C.ar        1 DN3      -0.0410
     20 C2         -1.3760   46.3818    8.6404 C.2         1 DN3       0.1452
     21 N1         -1.8919   45.3589    7.9416 N.2         1 DN3      -0.1437
     22 N5         -1.3243   45.3949    6.8202 N.pl3       1 DN3      -0.1036
     23 N4         -0.5049   46.3159    6.7446 N.2         1 DN3      -0.0518
     24 N3         -0.4843   46.9586    7.8212 N.2         1 DN3      -0.1756
     25 H1         -0.8319   52.1224   12.3786 H           1 DN3       0.0611
     26 H2         -0.7604   54.3727   13.2157 H           1 DN3       0.0611
     27 H3         -2.7628   55.6776   13.4192 H           1 DN3       0.0594
     28 H4         -5.6287   55.1129   11.5987 H           1 DN3       0.0980
     29 H5         -5.1071   56.0336   13.0001 H           1 DN3       0.0980
     30 H6         -6.4687   53.4224   13.1657 H           1 DN3       0.2042
     31 H7         -6.8654   53.8102   15.4509 H           1 DN3       0.0778
     32 H8         -6.0811   55.3966   15.3299 H           1 DN3       0.0778
     33 H9         -5.1379   53.9099   15.1210 H           1 DN3       0.0778
     34 H10        -7.9733   54.9332   12.1102 H           1 DN3       0.0778
     35 H11        -7.7849   56.0443   13.4795 H           1 DN3       0.0778
     36 H12        -8.5189   54.4422   13.7044 H           1 DN3       0.0778
     37 H13        -4.9878   52.5060   11.7630 H           1 DN3       0.0609
     38 H14        -1.5885   50.1143   12.7410 H           1 DN3       0.2251
     39 H15        -1.5886   48.8620    9.6020 H           1 DN3       0.0504
     40 H16        -1.9583   44.8043   10.7212 H           1 DN3       0.0498
     41 H17        -2.4169   45.4800   12.9881 H           1 DN3       0.0579
     42 H18        -2.4703   47.8226   13.5850 H           1 DN3       0.0505
     43 H19        -1.5660   44.8518    6.0965 H           1 DN3       0.2946
@<TRIPOS>BOND
     1     1     2   2
     2     2     3   1
     3     2    13  am
     4     3     4  ar
     5     3    12  ar
     6     4     5  ar
     7     5     6  ar
     8     6     7  ar
     9     7     8   1
    10     7    12  ar
    11     8     9   1
    12     9    10   1
    13     9    11   1
    14    13    14   1
    15    14    15  ar
    16    14    19  ar
    17    15    16  ar
    18    16    17  ar
    19    16    20   1
    20    17    18  ar
    21    18    19  ar
    22    20    21   2
    23    20    24   1
    24    21    22   1
    25    22    23   1
    26    23    24   2
    27     4    25   1
    28     5    26   1
    29     6    27   1
    30     8    28   1
    31     8    29   1
    32     9    30   1
    33    10    31   1
    34    10    32   1
    35    10    33   1
    36    11    34   1
    37    11    35   1
    38    11    36   1
    39    12    37   1
    40    13    38   1
    41    15    39   1
    42    17    40   1
    43    18    41   1
    44    19    42   1
    45    22    43   1
@<TRIPOS>SUBSTRUCTURE
     1  DN3      2

