@<TRIPOS>MOLECULE
4de2_ligand_037
    43    45
SMALL
GAST_HUCK
****
This file was generated by PARSER (from files_GN.cpp)

@<TRIPOS>ATOM
      1 O14        -1.7423   49.7042   13.2173 O.2         1 DN3      -0.3730
      2 C13        -1.2720   49.7074   12.0860 C.2         1 DN3       0.2307
      3 C15        -1.2722   50.9095   11.3541 C.ar        1 DN3       0.0495
      4 C16        -1.5389   52.1460   12.0008 C.ar        1 DN3      -0.0484
      5 C17        -1.5316   53.3565   11.2942 C.ar        1 DN3      -0.0627
      6 C18        -1.2665   53.3602    9.9182 C.ar        1 DN3      -0.0510
      7 C19        -1.0392   52.1541    9.2190 C.ar        1 DN3       0.0068
      8 C21        -0.7874   52.1737    7.7501 C.3         1 DN3       0.0024
      9 N22        -2.0102   52.1523    6.8799 N.4         1 DN3       0.2429
     10 C23        -2.9588   53.2861    7.0875 C.3         1 DN3      -0.0419
     11 C24        -1.6498   52.0236    5.4358 C.3         1 DN3      -0.0419
     12 C20        -1.0384   50.9413    9.9526 C.ar        1 DN3      -0.0351
     13 N12        -0.6976   48.5912   11.6284 N.am        1 DN3      -0.2334
     14 C10        -0.6561   47.3467   12.2066 C.ar        1 DN3       0.0663
     15 C11        -1.6476   46.8645   13.0951 C.ar        1 DN3      -0.0321
     16 C6         -1.5322   45.5958   13.7019 C.ar        1 DN3      -0.0043
     17 C7         -0.4278   44.7768   13.3910 C.ar        1 DN3      -0.0672
     18 C8          0.5413   45.2210   12.4741 C.ar        1 DN3      -0.0745
     19 C9          0.4251   46.4952   11.8851 C.ar        1 DN3      -0.0410
     20 C2         -2.5072   45.1747   14.6199 C.2         1 DN3       0.1452
     21 N1         -3.6747   44.5943   14.3410 N.2         1 DN3      -0.1437
     22 N5         -4.2396   44.4517   15.4549 N.pl3       1 DN3      -0.1036
     23 N4         -3.5612   44.8947   16.3828 N.2         1 DN3      -0.0518
     24 N3         -2.4798   45.3639   15.9429 N.2         1 DN3      -0.1756
     25 H1         -1.7353   52.1855   13.0018 H           1 DN3       0.0611
     26 H2         -1.7263   54.2336   11.7785 H           1 DN3       0.0611
     27 H3         -1.2509   54.2545    9.4244 H           1 DN3       0.0594
     28 H4         -0.1795   51.3007    7.5047 H           1 DN3       0.0980
     29 H5         -0.1691   53.0452    7.5091 H           1 DN3       0.0980
     30 H6         -2.5271   51.3006    7.1214 H           1 DN3       0.2042
     31 H7         -3.8172   53.2078    6.4152 H           1 DN3       0.0778
     32 H8         -2.4656   54.2500    6.9123 H           1 DN3       0.0778
     33 H9         -3.3581   53.2712    8.1022 H           1 DN3       0.0778
     34 H10        -1.0663   51.1171    5.2640 H           1 DN3       0.0778
     35 H11        -1.0588   52.8839    5.0995 H           1 DN3       0.0778
     36 H12        -2.5441   51.9517    4.8129 H           1 DN3       0.0778
     37 H13        -0.8700   50.0680    9.4435 H           1 DN3       0.0609
     38 H14        -0.1762   48.6807   10.8167 H           1 DN3       0.2251
     39 H15        -2.4705   47.4385   13.2992 H           1 DN3       0.0504
     40 H16        -0.3262   43.8524   13.8202 H           1 DN3       0.0498
     41 H17         1.3366   44.6219   12.2423 H           1 DN3       0.0579
     42 H18         1.1492   46.8083   11.2341 H           1 DN3       0.0505
     43 H19        -5.0836   44.0685   15.5654 H           1 DN3       0.2946
@<TRIPOS>BOND
     1     1     2   2
     2     2     3   1
     3     2    13  am
     4     3     4  ar
     5     3    12  ar
     6     4     5  ar
     7     5     6  ar
     8     6     7  ar
     9     7     8   1
    10     7    12  ar
    11     8     9   1
    12     9    10   1
    13     9    11   1
    14    13    14   1
    15    14    15  ar
    16    14    19  ar
    17    15    16  ar
    18    16    17  ar
    19    16    20   1
    20    17    18  ar
    21    18    19  ar
    22    20    21   2
    23    20    24   1
    24    21    22   1
    25    22    23   1
    26    23    24   2
    27     4    25   1
    28     5    26   1
    29     6    27   1
    30     8    28   1
    31     8    29   1
    32     9    30   1
    33    10    31   1
    34    10    32   1
    35    10    33   1
    36    11    34   1
    37    11    35   1
    38    11    36   1
    39    12    37   1
    40    13    38   1
    41    15    39   1
    42    17    40   1
    43    18    41   1
    44    19    42   1
    45    22    43   1
@<TRIPOS>SUBSTRUCTURE
     1  DN3      2

