@<TRIPOS>MOLECULE
4de2_ligand_039
    43    45
SMALL
GAST_HUCK
****
This file was generated by PARSER (from files_GN.cpp)

@<TRIPOS>ATOM
      1 O14        -1.6548   53.6817   10.2596 O.2         1 DN3      -0.3730
      2 C13        -1.9750   52.7013    9.5958 C.2         1 DN3       0.2307
      3 C15        -1.5886   52.6277    8.2443 C.ar        1 DN3       0.0495
      4 C16        -0.9767   53.7350    7.5982 C.ar        1 DN3      -0.0484
      5 C17        -0.6340   53.6917    6.2370 C.ar        1 DN3      -0.0627
      6 C18        -0.9076   52.5458    5.4758 C.ar        1 DN3      -0.0510
      7 C19        -1.5219   51.4232    6.0690 C.ar        1 DN3       0.0068
      8 C21        -1.8738   50.2169    5.2595 C.3         1 DN3       0.0024
      9 N22        -3.3059   50.0482    4.7944 N.4         1 DN3       0.2429
     10 C23        -4.3314   50.9359    5.4210 C.3         1 DN3      -0.0419
     11 C24        -3.4473   50.0255    3.3087 C.3         1 DN3      -0.0419
     12 C20        -1.8306   51.4739    7.4505 C.ar        1 DN3      -0.0351
     13 N12        -2.6541   51.7195   10.1902 N.am        1 DN3      -0.2334
     14 C10        -3.1661   51.6946   11.4555 C.ar        1 DN3       0.0663
     15 C11        -3.8710   52.7824   12.0223 C.ar        1 DN3      -0.0321
     16 C6         -4.3774   52.7323   13.3430 C.ar        1 DN3      -0.0043
     17 C7         -4.1867   51.5415   14.0848 C.ar        1 DN3      -0.0672
     18 C8         -3.5288   50.4345   13.5147 C.ar        1 DN3      -0.0745
     19 C9         -3.0348   50.5071   12.2015 C.ar        1 DN3      -0.0410
     20 C2         -5.0456   53.8549   13.9016 C.2         1 DN3       0.1452
     21 N1         -5.5555   53.9809   15.1315 N.2         1 DN3      -0.1437
     22 N5         -6.0345   55.1425   15.1897 N.pl3       1 DN3      -0.1036
     23 N4         -5.8877   55.7575   14.1364 N.2         1 DN3      -0.0518
     24 N3         -5.2887   55.0294   13.3030 N.2         1 DN3      -0.1756
     25 H1         -0.7803   54.5971    8.1130 H           1 DN3       0.0611
     26 H2         -0.1951   54.5005    5.7974 H           1 DN3       0.0611
     27 H3         -0.6640   52.5395    4.4842 H           1 DN3       0.0594
     28 H4         -1.6369   49.3348    5.8607 H           1 DN3       0.0980
     29 H5         -1.1791   50.1656    4.4132 H           1 DN3       0.0980
     30 H6         -3.5674   49.1026    5.0887 H           1 DN3       0.2042
     31 H7         -5.3359   50.6441    5.1154 H           1 DN3       0.0778
     32 H8         -4.1647   51.9802    5.1484 H           1 DN3       0.0778
     33 H9         -4.3016   50.8416    6.5026 H           1 DN3       0.0778
     34 H10        -2.8037   49.2527    2.8797 H           1 DN3       0.0778
     35 H11        -3.1755   50.9899    2.8717 H           1 DN3       0.0778
     36 H12        -4.4731   49.7835    3.0183 H           1 DN3       0.0778
     37 H13        -2.2680   50.6486    7.8665 H           1 DN3       0.0609
     38 H14        -2.7554   50.8987    9.6891 H           1 DN3       0.2251
     39 H15        -4.0217   53.6186   11.4559 H           1 DN3       0.0504
     40 H16        -4.5300   51.4645   15.0466 H           1 DN3       0.0498
     41 H17        -3.3966   49.5813   14.0619 H           1 DN3       0.0579
     42 H18        -2.5515   49.6984   11.8036 H           1 DN3       0.0505
     43 H19        -6.4509   55.4913   15.9515 H           1 DN3       0.2946
@<TRIPOS>BOND
     1     1     2   2
     2     2     3   1
     3     2    13  am
     4     3     4  ar
     5     3    12  ar
     6     4     5  ar
     7     5     6  ar
     8     6     7  ar
     9     7     8   1
    10     7    12  ar
    11     8     9   1
    12     9    10   1
    13     9    11   1
    14    13    14   1
    15    14    15  ar
    16    14    19  ar
    17    15    16  ar
    18    16    17  ar
    19    16    20   1
    20    17    18  ar
    21    18    19  ar
    22    20    21   2
    23    20    24   1
    24    21    22   1
    25    22    23   1
    26    23    24   2
    27     4    25   1
    28     5    26   1
    29     6    27   1
    30     8    28   1
    31     8    29   1
    32     9    30   1
    33    10    31   1
    34    10    32   1
    35    10    33   1
    36    11    34   1
    37    11    35   1
    38    11    36   1
    39    12    37   1
    40    13    38   1
    41    15    39   1
    42    17    40   1
    43    18    41   1
    44    19    42   1
    45    22    43   1
@<TRIPOS>SUBSTRUCTURE
     1  DN3      2

