@<TRIPOS>MOLECULE
4de2_ligand_035
    43    45
SMALL
GAST_HUCK
****
This file was generated by PARSER (from files_GN.cpp)

@<TRIPOS>ATOM
      1 O14        -7.7655   52.2663    9.7295 O.2         1 DN3      -0.3730
      2 C13        -6.6107   52.6801    9.6757 C.2         1 DN3       0.2307
      3 C15        -5.5723   51.7789    9.8032 C.ar        1 DN3       0.0495
      4 C16        -5.4886   50.6453    8.9622 C.ar        1 DN3      -0.0484
      5 C17        -4.4139   49.7431    9.0786 C.ar        1 DN3      -0.0627
      6 C18        -3.4324   49.9469   10.0632 C.ar        1 DN3      -0.0510
      7 C19        -3.5073   51.0530   10.9391 C.ar        1 DN3       0.0068
      8 C21        -2.5138   51.2156   12.0413 C.3         1 DN3       0.0024
      9 N22        -2.8691   50.5523   13.3419 N.4         1 DN3       0.2429
     10 C23        -4.0072   51.2007   14.0607 C.3         1 DN3      -0.0419
     11 C24        -3.0484   49.0747   13.2384 C.3         1 DN3      -0.0419
     12 C20        -4.5650   51.9767   10.7796 C.ar        1 DN3      -0.0351
     13 N12        -6.3303   53.9346    9.3617 N.am        1 DN3      -0.2334
     14 C10        -7.2115   54.9523    9.1724 C.ar        1 DN3       0.0663
     15 C11        -8.0466   55.4223   10.2147 C.ar        1 DN3      -0.0321
     16 C6         -8.8612   56.5697   10.0438 C.ar        1 DN3      -0.0043
     17 C7         -8.8640   57.2067    8.7766 C.ar        1 DN3      -0.0672
     18 C8         -8.0571   56.7256    7.7308 C.ar        1 DN3      -0.0745
     19 C9         -7.2094   55.6256    7.9366 C.ar        1 DN3      -0.0410
     20 C2         -9.5873   57.0995   11.1353 C.2         1 DN3       0.1452
     21 N1         -9.8073   58.3954   11.4089 N.2         1 DN3      -0.1437
     22 N5        -10.4186   58.4131   12.5081 N.pl3       1 DN3      -0.1036
     23 N4        -10.6100   57.2797   12.9484 N.2         1 DN3      -0.0518
     24 N3        -10.1289   56.4269   12.1634 N.2         1 DN3      -0.1756
     25 H1         -6.1929   50.4821    8.2316 H           1 DN3       0.0611
     26 H2         -4.3524   48.9398    8.4506 H           1 DN3       0.0611
     27 H3         -2.6676   49.2714   10.1425 H           1 DN3       0.0594
     28 H4         -2.3491   52.2818   12.2228 H           1 DN3       0.0980
     29 H5         -1.5407   50.8343   11.7179 H           1 DN3       0.0980
     30 H6         -2.0583   50.6894   13.9433 H           1 DN3       0.2042
     31 H7         -4.1100   50.7807   15.0635 H           1 DN3       0.0778
     32 H8         -4.9513   51.0512   13.5363 H           1 DN3       0.0778
     33 H9         -3.8314   52.2747   14.1717 H           1 DN3       0.0778
     34 H10        -2.1764   48.6212   12.7658 H           1 DN3       0.0778
     35 H11        -3.9357   48.8221   12.6618 H           1 DN3       0.0778
     36 H12        -3.1505   48.6379   14.2315 H           1 DN3       0.0778
     37 H13        -4.6177   52.7848   11.4022 H           1 DN3       0.0609
     38 H14        -5.4003   54.1302    9.1613 H           1 DN3       0.2251
     39 H15        -8.0021   54.9561   11.1274 H           1 DN3       0.0504
     40 H16        -9.4293   58.0414    8.6165 H           1 DN3       0.0498
     41 H17        -8.0608   57.2039    6.8250 H           1 DN3       0.0579
     42 H18        -6.6094   55.3020    7.1742 H           1 DN3       0.0505
     43 H19       -10.5929   59.1920   12.9960 H           1 DN3       0.2946
@<TRIPOS>BOND
     1     1     2   2
     2     2     3   1
     3     2    13  am
     4     3     4  ar
     5     3    12  ar
     6     4     5  ar
     7     5     6  ar
     8     6     7  ar
     9     7     8   1
    10     7    12  ar
    11     8     9   1
    12     9    10   1
    13     9    11   1
    14    13    14   1
    15    14    15  ar
    16    14    19  ar
    17    15    16  ar
    18    16    17  ar
    19    16    20   1
    20    17    18  ar
    21    18    19  ar
    22    20    21   2
    23    20    24   1
    24    21    22   1
    25    22    23   1
    26    23    24   2
    27     4    25   1
    28     5    26   1
    29     6    27   1
    30     8    28   1
    31     8    29   1
    32     9    30   1
    33    10    31   1
    34    10    32   1
    35    10    33   1
    36    11    34   1
    37    11    35   1
    38    11    36   1
    39    12    37   1
    40    13    38   1
    41    15    39   1
    42    17    40   1
    43    18    41   1
    44    19    42   1
    45    22    43   1
@<TRIPOS>SUBSTRUCTURE
     1  DN3      2

