@<TRIPOS>MOLECULE
4de2_ligand_004
    43    45
SMALL
GAST_HUCK
****
This file was generated by PARSER (from files_GN.cpp)

@<TRIPOS>ATOM
      1 O14        -3.7201   54.3510   12.0574 O.2         1 DN3      -0.3730
      2 C13        -4.3806   53.3196   12.0189 C.2         1 DN3       0.2307
      3 C15        -5.4174   53.1996   12.9197 C.ar        1 DN3       0.0495
      4 C16        -5.1559   53.1314   14.3045 C.ar        1 DN3      -0.0484
      5 C17        -6.2185   53.0063   15.2118 C.ar        1 DN3      -0.0627
      6 C18        -7.5430   52.9278   14.7484 C.ar        1 DN3      -0.0510
      7 C19        -7.8294   52.9942   13.3651 C.ar        1 DN3       0.0068
      8 C21        -9.2352   53.0046   12.8748 C.3         1 DN3       0.0024
      9 N22        -9.5270   52.1417   11.6820 N.4         1 DN3       0.2429
     10 C23        -9.2675   50.6882   11.8980 C.3         1 DN3      -0.0419
     11 C24       -10.9037   52.3730   11.1587 C.3         1 DN3      -0.0419
     12 C20        -6.7536   53.1491   12.4631 C.ar        1 DN3      -0.0351
     13 N12        -4.1669   52.3322   11.1566 N.am        1 DN3      -0.2334
     14 C10        -3.1740   52.1598   10.2299 C.ar        1 DN3       0.0663
     15 C11        -1.9226   52.8260   10.2585 C.ar        1 DN3      -0.0321
     16 C6         -0.9197   52.5419    9.3068 C.ar        1 DN3      -0.0043
     17 C7         -1.1714   51.5698    8.3144 C.ar        1 DN3      -0.0672
     18 C8         -2.4074   50.9016    8.2726 C.ar        1 DN3      -0.0745
     19 C9         -3.3998   51.1899    9.2278 C.ar        1 DN3      -0.0410
     20 C2          0.3145   53.2248    9.3488 C.2         1 DN3       0.1452
     21 N1          0.5131   54.4906    9.7307 N.2         1 DN3      -0.1437
     22 N5          1.7447   54.6945    9.5871 N.pl3       1 DN3      -0.1036
     23 N4          2.3334   53.6942    9.1746 N.2         1 DN3      -0.0518
     24 N3          1.5165   52.7563    8.9929 N.2         1 DN3      -0.1756
     25 H1         -4.1978   53.1752   14.6618 H           1 DN3       0.0611
     26 H2         -6.0264   52.9722   16.2114 H           1 DN3       0.0611
     27 H3         -8.2968   52.8508   15.4352 H           1 DN3       0.0594
     28 H4         -9.4362   54.0477   12.6099 H           1 DN3       0.0980
     29 H5         -9.9202   52.7360   13.6854 H           1 DN3       0.0980
     30 H6         -8.8935   52.4381   10.9414 H           1 DN3       0.2042
     31 H7         -9.4187   50.1373   10.9669 H           1 DN3       0.0778
     32 H8         -9.9304   50.2788   12.6649 H           1 DN3       0.0778
     33 H9         -8.2322   50.5216   12.2025 H           1 DN3       0.0778
     34 H10       -11.0592   53.4311   10.9354 H           1 DN3       0.0778
     35 H11       -11.6583   52.0541   11.8846 H           1 DN3       0.0778
     36 H12       -11.0571   51.8228   10.2270 H           1 DN3       0.0778
     37 H13        -6.9400   53.2282   11.4603 H           1 DN3       0.0609
     38 H14        -4.8182   51.6136   11.1904 H           1 DN3       0.2251
     39 H15        -1.7129   53.4870   11.0074 H           1 DN3       0.0504
     40 H16        -0.4613   51.3466    7.6120 H           1 DN3       0.0498
     41 H17        -2.5901   50.2116    7.5387 H           1 DN3       0.0579
     42 H18        -4.2931   50.6875    9.1791 H           1 DN3       0.0505
     43 H19         2.1487   55.5268    9.7136 H           1 DN3       0.2946
@<TRIPOS>BOND
     1     1     2   2
     2     2     3   1
     3     2    13  am
     4     3     4  ar
     5     3    12  ar
     6     4     5  ar
     7     5     6  ar
     8     6     7  ar
     9     7     8   1
    10     7    12  ar
    11     8     9   1
    12     9    10   1
    13     9    11   1
    14    13    14   1
    15    14    15  ar
    16    14    19  ar
    17    15    16  ar
    18    16    17  ar
    19    16    20   1
    20    17    18  ar
    21    18    19  ar
    22    20    21   2
    23    20    24   1
    24    21    22   1
    25    22    23   1
    26    23    24   2
    27     4    25   1
    28     5    26   1
    29     6    27   1
    30     8    28   1
    31     8    29   1
    32     9    30   1
    33    10    31   1
    34    10    32   1
    35    10    33   1
    36    11    34   1
    37    11    35   1
    38    11    36   1
    39    12    37   1
    40    13    38   1
    41    15    39   1
    42    17    40   1
    43    18    41   1
    44    19    42   1
    45    22    43   1
@<TRIPOS>SUBSTRUCTURE
     1  DN3      2

