@<TRIPOS>MOLECULE
4de2_ligand_025
    43    45
SMALL
GAST_HUCK
****
This file was generated by PARSER (from files_GN.cpp)

@<TRIPOS>ATOM
      1 O14        -7.3251   52.6611    8.6176 O.2         1 DN3      -0.3730
      2 C13        -8.0491   53.4624    9.2004 C.2         1 DN3       0.2307
      3 C15        -8.8358   52.9865   10.2257 C.ar        1 DN3       0.0495
      4 C16        -8.6751   53.4959   11.5353 C.ar        1 DN3      -0.0484
      5 C17        -9.4463   52.9801   12.5933 C.ar        1 DN3      -0.0627
      6 C18       -10.4020   51.9835   12.3414 C.ar        1 DN3      -0.0510
      7 C19       -10.6204   51.4902   11.0345 C.ar        1 DN3       0.0068
      8 C21       -11.6746   50.4642   10.7750 C.3         1 DN3       0.0024
      9 N22       -13.0138   50.7455   11.3880 N.4         1 DN3       0.2429
     10 C23       -13.6215   52.0494   10.9784 C.3         1 DN3      -0.0419
     11 C24       -13.9697   49.6188   11.1803 C.3         1 DN3      -0.0419
     12 C20        -9.8092   51.9857    9.9867 C.ar        1 DN3      -0.0351
     13 N12        -8.2066   54.7110    8.7917 N.am        1 DN3      -0.2334
     14 C10        -7.5448   55.3100    7.7630 C.ar        1 DN3       0.0663
     15 C11        -8.2847   56.0092    6.7877 C.ar        1 DN3      -0.0321
     16 C6         -7.6386   56.6651    5.7114 C.ar        1 DN3      -0.0043
     17 C7         -6.2262   56.6533    5.6529 C.ar        1 DN3      -0.0672
     18 C8         -5.4811   55.9655    6.6279 C.ar        1 DN3      -0.0745
     19 C9         -6.1381   55.2852    7.6671 C.ar        1 DN3      -0.0410
     20 C2         -8.3923   57.3184    4.7100 C.2         1 DN3       0.1452
     21 N1         -8.0497   58.3999    3.9966 N.2         1 DN3      -0.1437
     22 N5         -9.0329   58.6152    3.2433 N.pl3       1 DN3      -0.1036
     23 N4         -9.9389   57.7984    3.4014 N.2         1 DN3      -0.0518
     24 N3         -9.6134   56.9704    4.2886 N.2         1 DN3      -0.1756
     25 H1         -7.9914   54.2311   11.7386 H           1 DN3       0.0611
     26 H2         -9.3188   53.3488   13.5421 H           1 DN3       0.0611
     27 H3        -10.9590   51.6322   13.1202 H           1 DN3       0.0594
     28 H4        -11.2965   49.5259   11.1855 H           1 DN3       0.0980
     29 H5        -11.7967   50.3114    9.7002 H           1 DN3       0.0980
     30 H6        -12.8553   50.7976   12.3953 H           1 DN3       0.2042
     31 H7        -14.5516   52.2247   11.5262 H           1 DN3       0.0778
     32 H8        -13.8458   52.0658    9.9084 H           1 DN3       0.0778
     33 H9        -12.9538   52.8865   11.2026 H           1 DN3       0.0778
     34 H10       -13.5436   48.6868   11.5494 H           1 DN3       0.0778
     35 H11       -14.2170   49.4956   10.1247 H           1 DN3       0.0778
     36 H12       -14.8917   49.7967   11.7322 H           1 DN3       0.0778
     37 H13        -9.9334   51.6181    9.0355 H           1 DN3       0.0609
     38 H14        -8.9288   55.2173    9.1993 H           1 DN3       0.2251
     39 H15        -9.3059   56.0218    6.8585 H           1 DN3       0.0504
     40 H16        -5.7281   57.1400    4.8986 H           1 DN3       0.0498
     41 H17        -4.4594   55.9647    6.5838 H           1 DN3       0.0579
     42 H18        -5.5818   54.7871    8.3606 H           1 DN3       0.0505
     43 H19        -9.1302   59.3877    2.7320 H           1 DN3       0.2946
@<TRIPOS>BOND
     1     1     2   2
     2     2     3   1
     3     2    13  am
     4     3     4  ar
     5     3    12  ar
     6     4     5  ar
     7     5     6  ar
     8     6     7  ar
     9     7     8   1
    10     7    12  ar
    11     8     9   1
    12     9    10   1
    13     9    11   1
    14    13    14   1
    15    14    15  ar
    16    14    19  ar
    17    15    16  ar
    18    16    17  ar
    19    16    20   1
    20    17    18  ar
    21    18    19  ar
    22    20    21   2
    23    20    24   1
    24    21    22   1
    25    22    23   1
    26    23    24   2
    27     4    25   1
    28     5    26   1
    29     6    27   1
    30     8    28   1
    31     8    29   1
    32     9    30   1
    33    10    31   1
    34    10    32   1
    35    10    33   1
    36    11    34   1
    37    11    35   1
    38    11    36   1
    39    12    37   1
    40    13    38   1
    41    15    39   1
    42    17    40   1
    43    18    41   1
    44    19    42   1
    45    22    43   1
@<TRIPOS>SUBSTRUCTURE
     1  DN3      2

