@<TRIPOS>MOLECULE
4de2_ligand_033
    43    45
SMALL
GAST_HUCK
****
This file was generated by PARSER (from files_GN.cpp)

@<TRIPOS>ATOM
      1 O14        -6.3746   52.3104    7.6681 O.2         1 DN3      -0.3730
      2 C13        -5.5406   52.5790    6.8102 C.2         1 DN3       0.2307
      3 C15        -4.6027   51.5951    6.4376 C.ar        1 DN3       0.0495
      4 C16        -3.6595   51.7944    5.3957 C.ar        1 DN3      -0.0484
      5 C17        -2.6820   50.8238    5.0980 C.ar        1 DN3      -0.0627
      6 C18        -2.6350   49.6225    5.8200 C.ar        1 DN3      -0.0510
      7 C19        -3.5779   49.3694    6.8414 C.ar        1 DN3       0.0068
      8 C21        -3.5711   48.0855    7.6027 C.3         1 DN3       0.0024
      9 N22        -2.8681   48.0927    8.9283 N.4         1 DN3       0.2429
     10 C23        -1.3854   48.2282    8.8126 C.3         1 DN3      -0.0419
     11 C24        -3.4425   49.0210    9.9432 C.3         1 DN3      -0.0419
     12 C20        -4.5491   50.3534    7.1227 C.ar        1 DN3      -0.0351
     13 N12        -5.5599   53.7864    6.2488 N.am        1 DN3      -0.2334
     14 C10        -6.3900   54.8407    6.5565 C.ar        1 DN3       0.0663
     15 C11        -6.9247   55.5928    5.4911 C.ar        1 DN3      -0.0321
     16 C6         -7.8182   56.6565    5.7403 C.ar        1 DN3      -0.0043
     17 C7         -8.1370   56.9993    7.0742 C.ar        1 DN3      -0.0672
     18 C8         -7.5524   56.2998    8.1392 C.ar        1 DN3      -0.0745
     19 C9         -6.6872   55.2210    7.8868 C.ar        1 DN3      -0.0410
     20 C2         -8.4381   57.3270    4.6804 C.2         1 DN3       0.1452
     21 N1         -7.9843   58.3821    4.0005 N.2         1 DN3      -0.1437
     22 N5         -8.8983   58.6562    3.1803 N.pl3       1 DN3      -0.1036
     23 N4         -9.8706   57.9077    3.2955 N.2         1 DN3      -0.0518
     24 N3         -9.6580   57.0615    4.1985 N.2         1 DN3      -0.1756
     25 H1         -3.6594   52.6494    4.8380 H           1 DN3       0.0611
     26 H2         -1.9983   51.0025    4.3559 H           1 DN3       0.0611
     27 H3         -1.9107   48.9376    5.5979 H           1 DN3       0.0594
     28 H4         -3.1443   47.2943    6.9830 H           1 DN3       0.0980
     29 H5         -4.6110   47.7771    7.7705 H           1 DN3       0.0980
     30 H6         -3.0212   47.1565    9.3099 H           1 DN3       0.2042
     31 H7         -0.9184   48.1167    9.7940 H           1 DN3       0.0778
     32 H8         -1.1027   49.1945    8.3985 H           1 DN3       0.0778
     33 H9         -0.9875   47.4376    8.1726 H           1 DN3       0.0778
     34 H10        -4.5268   48.8928   10.0087 H           1 DN3       0.0778
     35 H11        -3.2270   50.0653    9.6999 H           1 DN3       0.0778
     36 H12        -3.0307   48.8043   10.9270 H           1 DN3       0.0778
     37 H13        -5.2298   50.1578    7.8607 H           1 DN3       0.0609
     38 H14        -4.9631   53.9350    5.5108 H           1 DN3       0.2251
     39 H15        -6.6982   55.3352    4.5268 H           1 DN3       0.0504
     40 H16        -8.7847   57.7688    7.2743 H           1 DN3       0.0498
     41 H17        -7.7590   56.5699    9.1071 H           1 DN3       0.0579
     42 H18        -6.2667   54.7293    8.6766 H           1 DN3       0.0505
     43 H19        -8.9362   59.4616    2.7203 H           1 DN3       0.2946
@<TRIPOS>BOND
     1     1     2   2
     2     2     3   1
     3     2    13  am
     4     3     4  ar
     5     3    12  ar
     6     4     5  ar
     7     5     6  ar
     8     6     7  ar
     9     7     8   1
    10     7    12  ar
    11     8     9   1
    12     9    10   1
    13     9    11   1
    14    13    14   1
    15    14    15  ar
    16    14    19  ar
    17    15    16  ar
    18    16    17  ar
    19    16    20   1
    20    17    18  ar
    21    18    19  ar
    22    20    21   2
    23    20    24   1
    24    21    22   1
    25    22    23   1
    26    23    24   2
    27     4    25   1
    28     5    26   1
    29     6    27   1
    30     8    28   1
    31     8    29   1
    32     9    30   1
    33    10    31   1
    34    10    32   1
    35    10    33   1
    36    11    34   1
    37    11    35   1
    38    11    36   1
    39    12    37   1
    40    13    38   1
    41    15    39   1
    42    17    40   1
    43    18    41   1
    44    19    42   1
    45    22    43   1
@<TRIPOS>SUBSTRUCTURE
     1  DN3      2

