@<TRIPOS>MOLECULE
4de2_ligand_013
    43    45
SMALL
GAST_HUCK
****
This file was generated by PARSER (from files_GN.cpp)

@<TRIPOS>ATOM
      1 O14        -6.0547   53.4411    5.2749 O.2         1 DN3      -0.3730
      2 C13        -5.2797   53.5923    6.2156 C.2         1 DN3       0.2307
      3 C15        -4.1754   52.7339    6.3270 C.ar        1 DN3       0.0495
      4 C16        -3.7292   51.9753    5.2124 C.ar        1 DN3      -0.0484
      5 C17        -2.5667   51.1889    5.2813 C.ar        1 DN3      -0.0627
      6 C18        -1.8245   51.1384    6.4696 C.ar        1 DN3      -0.0510
      7 C19        -2.2624   51.8363    7.6184 C.ar        1 DN3       0.0068
      8 C21        -1.4730   51.7776    8.8794 C.3         1 DN3       0.0024
      9 N22        -0.2925   52.7016    8.8555 N.4         1 DN3       0.2429
     10 C23        -0.6658   54.1489    8.9161 C.3         1 DN3      -0.0419
     11 C24         0.7179   52.3585    9.8986 C.3         1 DN3      -0.0419
     12 C20        -3.4370   52.6158    7.5320 C.ar        1 DN3      -0.0351
     13 N12        -5.5112   54.5518    7.1108 N.am        1 DN3      -0.2334
     14 C10        -6.5107   55.4889    7.1130 C.ar        1 DN3       0.0663
     15 C11        -6.9919   56.1125    5.9310 C.ar        1 DN3      -0.0321
     16 C6         -8.0686   57.0279    5.9795 C.ar        1 DN3      -0.0043
     17 C7         -8.6366   57.3526    7.2312 C.ar        1 DN3      -0.0672
     18 C8         -8.1194   56.7969    8.4139 C.ar        1 DN3      -0.0745
     19 C9         -7.0546   55.8800    8.3519 C.ar        1 DN3      -0.0410
     20 C2         -8.5575   57.6201    4.8097 C.2         1 DN3       0.1452
     21 N1         -7.9440   58.5160    4.0341 N.2         1 DN3      -0.1437
     22 N5         -8.7723   58.7850    3.1275 N.pl3       1 DN3      -0.1036
     23 N4         -9.8314   58.1632    3.2635 N.2         1 DN3      -0.0518
     24 N3         -9.7750   57.4283    4.2737 N.2         1 DN3      -0.1756
     25 H1         -4.2285   52.0118    4.3206 H           1 DN3       0.0611
     26 H2         -2.2534   50.6611    4.4619 H           1 DN3       0.0611
     27 H3         -0.9706   50.5774    6.5002 H           1 DN3       0.0594
     28 H4         -1.1444   50.7405    9.0155 H           1 DN3       0.0980
     29 H5         -2.1076   52.0063    9.7425 H           1 DN3       0.0980
     30 H6          0.1711   52.5616    7.9557 H           1 DN3       0.2042
     31 H7          0.2226   54.7831    8.8904 H           1 DN3       0.0778
     32 H8         -1.2292   54.3759    9.8251 H           1 DN3       0.0778
     33 H9         -1.2731   54.4190    8.0510 H           1 DN3       0.0778
     34 H10         1.0664   51.3319    9.7636 H           1 DN3       0.0778
     35 H11         0.2987   52.4582   10.9032 H           1 DN3       0.0778
     36 H12         1.5914   53.0084    9.8157 H           1 DN3       0.0778
     37 H13        -3.7440   53.1139    8.3695 H           1 DN3       0.0609
     38 H14        -4.9372   54.5609    7.8928 H           1 DN3       0.2251
     39 H15        -6.5544   55.8852    5.0374 H           1 DN3       0.0504
     40 H16        -9.4069   58.0227    7.2878 H           1 DN3       0.0498
     41 H17        -8.5283   57.0604    9.3146 H           1 DN3       0.0579
     42 H18        -6.7010   55.4762    9.2261 H           1 DN3       0.0505
     43 H19        -8.6504   59.4709    2.5091 H           1 DN3       0.2946
@<TRIPOS>BOND
     1     1     2   2
     2     2     3   1
     3     2    13  am
     4     3     4  ar
     5     3    12  ar
     6     4     5  ar
     7     5     6  ar
     8     6     7  ar
     9     7     8   1
    10     7    12  ar
    11     8     9   1
    12     9    10   1
    13     9    11   1
    14    13    14   1
    15    14    15  ar
    16    14    19  ar
    17    15    16  ar
    18    16    17  ar
    19    16    20   1
    20    17    18  ar
    21    18    19  ar
    22    20    21   2
    23    20    24   1
    24    21    22   1
    25    22    23   1
    26    23    24   2
    27     4    25   1
    28     5    26   1
    29     6    27   1
    30     8    28   1
    31     8    29   1
    32     9    30   1
    33    10    31   1
    34    10    32   1
    35    10    33   1
    36    11    34   1
    37    11    35   1
    38    11    36   1
    39    12    37   1
    40    13    38   1
    41    15    39   1
    42    17    40   1
    43    18    41   1
    44    19    42   1
    45    22    43   1
@<TRIPOS>SUBSTRUCTURE
     1  DN3      2

