@<TRIPOS>MOLECULE
4des_ligand_013
    29    31
SMALL
GAST_HUCK
****
This file was generated by PARSER (from files_GN.cpp)

@<TRIPOS>ATOM
      1 C2         21.1586   -1.2643   -5.9277 C.2         1 MOL       0.1434
      2 C3         20.4714   -0.1793   -5.4978 C.2         1 MOL       0.0085
      3 C4         20.3442    0.0669   -4.1644 C.2         1 MOL       0.1012
      4 C5         21.0000   -0.7245   -3.2103 C.ar        1 MOL       0.0778
      5 C6         21.0047   -0.4894   -1.8105 C.ar        1 MOL       0.0936
      6 C7         21.6931   -1.3589   -0.9435 C.ar        1 MOL      -0.0085
      7 C8         22.4031   -2.4548   -1.4546 C.ar        1 MOL       0.0776
      8 C9         22.4104   -2.7018   -2.8364 C.ar        1 MOL      -0.0032
      9 C10        21.7144   -1.8485   -3.7130 C.ar        1 MOL       0.1294
     10 O1         21.7202   -2.1432   -5.0591 O.3         1 MOL      -0.2412
     11 O4         19.6382    1.0102   -3.8288 O.2         1 MOL      -0.4247
     12 O5         20.3401    0.5281   -1.2191 O.3         1 MOL      -0.3325
     13 O7         23.0689   -3.2638   -0.5996 O.3         1 MOL      -0.3350
     14 C2'        20.7223   -2.6384   -7.8810 C.ar        1 MOL      -0.0449
     15 C3'        20.9652   -2.9429   -9.2332 C.ar        1 MOL      -0.0570
     16 C4'        21.8497   -2.1471   -9.9863 C.ar        1 MOL      -0.0581
     17 C5'        22.4923   -1.0489   -9.3849 C.ar        1 MOL      -0.0570
     18 C6'        22.2403   -0.7357   -8.0375 C.ar        1 MOL      -0.0449
     19 C1'        21.3509   -1.5260   -7.2730 C.ar        1 MOL       0.0307
     20 H1         20.0571    0.4410   -6.1604 H           1 MOL       0.0422
     21 H2         21.6784   -1.1857    0.0651 H           1 MOL       0.0403
     22 H3         22.9225   -3.5100   -3.2054 H           1 MOL       0.0401
     23 H4         20.6043    1.3389   -1.7073 H           1 MOL       0.2503
     24 H5         23.9932   -2.9397   -0.6246 H           1 MOL       0.2494
     25 H6         20.0830   -3.2356   -7.3467 H           1 MOL       0.0661
     26 H7         20.5135   -3.7516   -9.6654 H           1 MOL       0.0628
     27 H8         22.0416   -2.3800  -10.9641 H           1 MOL       0.0648
     28 H9         23.1562   -0.4894   -9.9224 H           1 MOL       0.0628
     29 H10        22.7367    0.0531   -7.6123 H           1 MOL       0.0661
@<TRIPOS>BOND
     1     1     2   2
     2     1    10   1
     3    19     1   1
     4     2     3   1
     5     3     4   1
     6     3    11   2
     7     4     5  ar
     8     9     4  ar
     9     5     6  ar
    10     5    12   1
    11     7     6  ar
    12     8     7  ar
    13     7    13   1
    14     9     8  ar
    15    10     9   1
    16    14    15  ar
    17    14    19  ar
    18    15    16  ar
    19    16    17  ar
    20    17    18  ar
    21    18    19  ar
    22     2    20   1
    23     6    21   1
    24     8    22   1
    25    12    23   1
    26    13    24   1
    27    14    25   1
    28    15    26   1
    29    16    27   1
    30    17    28   1
    31    18    29   1
@<TRIPOS>SUBSTRUCTURE
     1  MOL      1

