@<TRIPOS>MOLECULE
4des_ligand_002
    29    31
SMALL
GAST_HUCK
****
This file was generated by PARSER (from files_GN.cpp)

@<TRIPOS>ATOM
      1 C2         20.8404   -0.5294   -3.7787 C.2         1 MOL       0.1434
      2 C3         20.7032    0.8093   -3.6714 C.2         1 MOL       0.0085
      3 C4         20.7624    1.4142   -2.4464 C.2         1 MOL       0.1012
      4 C5         21.0260    0.6765   -1.2846 C.ar        1 MOL       0.0778
      5 C6         21.1362    1.2237    0.0236 C.ar        1 MOL       0.0936
      6 C7         21.3761    0.3763    1.1278 C.ar        1 MOL      -0.0085
      7 C8         21.5364   -1.0051    0.9421 C.ar        1 MOL       0.0776
      8 C9         21.4594   -1.5510   -0.3471 C.ar        1 MOL      -0.0032
      9 C10        21.1991   -0.7233   -1.4555 C.ar        1 MOL       0.1294
     10 O1         21.0817   -1.3155   -2.7001 O.3         1 MOL      -0.2412
     11 O4         20.5969    2.6262   -2.4021 O.2         1 MOL      -0.4247
     12 O5         21.0435    2.5614    0.2566 O.3         1 MOL      -0.3325
     13 O7         21.7609   -1.8039    2.0111 O.3         1 MOL      -0.3350
     14 C2'        19.7371   -2.1912   -5.1582 C.ar        1 MOL      -0.0449
     15 C3'        19.5816   -2.8487   -6.3929 C.ar        1 MOL      -0.0570
     16 C4'        20.4249   -2.5267   -7.4726 C.ar        1 MOL      -0.0581
     17 C5'        21.4148   -1.5375   -7.3162 C.ar        1 MOL      -0.0570
     18 C6'        21.5526   -0.8637   -6.0884 C.ar        1 MOL      -0.0449
     19 C1'        20.7141   -1.1828   -4.9974 C.ar        1 MOL       0.0307
     20 H1         20.5371    1.3630   -4.4835 H           1 MOL       0.0422
     21 H2         21.4392    0.7726    2.0684 H           1 MOL       0.0403
     22 H3         21.5689   -2.5621   -0.4800 H           1 MOL       0.0401
     23 H4         21.6963    2.7506    0.9604 H           1 MOL       0.2503
     24 H5         20.9369   -2.3325    2.1007 H           1 MOL       0.2494
     25 H6         19.0988   -2.4274   -4.3935 H           1 MOL       0.0661
     26 H7         18.8482   -3.5531   -6.5136 H           1 MOL       0.0628
     27 H8         20.3151   -3.0059   -8.3688 H           1 MOL       0.0648
     28 H9         22.0350   -1.3122   -8.0999 H           1 MOL       0.0628
     29 H10        22.2841   -0.1524   -5.9920 H           1 MOL       0.0661
@<TRIPOS>BOND
     1     1     2   2
     2     1    10   1
     3    19     1   1
     4     2     3   1
     5     3     4   1
     6     3    11   2
     7     4     5  ar
     8     9     4  ar
     9     5     6  ar
    10     5    12   1
    11     7     6  ar
    12     8     7  ar
    13     7    13   1
    14     9     8  ar
    15    10     9   1
    16    14    15  ar
    17    14    19  ar
    18    15    16  ar
    19    16    17  ar
    20    17    18  ar
    21    18    19  ar
    22     2    20   1
    23     6    21   1
    24     8    22   1
    25    12    23   1
    26    13    24   1
    27    14    25   1
    28    15    26   1
    29    16    27   1
    30    17    28   1
    31    18    29   1
@<TRIPOS>SUBSTRUCTURE
     1  MOL      1

