@<TRIPOS>MOLECULE
4des_ligand_022
    29    31
SMALL
GAST_HUCK
****
This file was generated by PARSER (from files_GN.cpp)

@<TRIPOS>ATOM
      1 C2         19.4717    2.0748   -0.8962 C.2         1 MOL       0.1434
      2 C3         19.8387    2.4784    0.3364 C.2         1 MOL       0.0085
      3 C4         18.8936    2.6636    1.3020 C.2         1 MOL       0.1012
      4 C5         17.5404    2.3769    1.0660 C.ar        1 MOL       0.0778
      5 C6         16.5053    2.4619    2.0351 C.ar        1 MOL       0.0936
      6 C7         15.1788    2.1394    1.6927 C.ar        1 MOL      -0.0085
      7 C8         14.8635    1.7233    0.3898 C.ar        1 MOL       0.0776
      8 C9         15.8769    1.6331   -0.5818 C.ar        1 MOL      -0.0032
      9 C10        17.2073    1.9595   -0.2516 C.ar        1 MOL       0.1294
     10 O1         18.1762    1.8586   -1.2346 O.3         1 MOL      -0.2412
     11 O4         19.2630    3.1121    2.3785 O.2         1 MOL      -0.4247
     12 O5         16.7477    2.8174    3.3199 O.3         1 MOL      -0.3325
     13 O7         13.5792    1.4200    0.0893 O.3         1 MOL      -0.3350
     14 C2'        20.7609    2.8626   -2.7925 C.ar        1 MOL      -0.0449
     15 C3'        21.7066    2.6108   -3.8054 C.ar        1 MOL      -0.0570
     16 C4'        22.2996    1.3399   -3.9181 C.ar        1 MOL      -0.0581
     17 C5'        21.9541    0.3194   -3.0144 C.ar        1 MOL      -0.0570
     18 C6'        21.0149    0.5697   -1.9973 C.ar        1 MOL      -0.0449
     19 C1'        20.4111    1.8424   -1.8787 C.ar        1 MOL       0.0307
     20 H1         20.8026    2.6309    0.5507 H           1 MOL       0.0422
     21 H2         14.4376    2.1984    2.3949 H           1 MOL       0.0403
     22 H3         15.6464    1.3286   -1.5302 H           1 MOL       0.0401
     23 H4         16.6473    3.7928    3.3334 H           1 MOL       0.2503
     24 H5         13.5447    0.4396    0.0832 H           1 MOL       0.2494
     25 H6         20.3358    3.7924   -2.7243 H           1 MOL       0.0661
     26 H7         21.9791    3.3537   -4.4541 H           1 MOL       0.0628
     27 H8         22.9832    1.1584   -4.6558 H           1 MOL       0.0648
     28 H9         22.3760   -0.6086   -3.1082 H           1 MOL       0.0628
     29 H10        20.7625   -0.1862   -1.3570 H           1 MOL       0.0661
@<TRIPOS>BOND
     1     1     2   2
     2     1    10   1
     3    19     1   1
     4     2     3   1
     5     3     4   1
     6     3    11   2
     7     4     5  ar
     8     9     4  ar
     9     5     6  ar
    10     5    12   1
    11     7     6  ar
    12     8     7  ar
    13     7    13   1
    14     9     8  ar
    15    10     9   1
    16    14    15  ar
    17    14    19  ar
    18    15    16  ar
    19    16    17  ar
    20    17    18  ar
    21    18    19  ar
    22     2    20   1
    23     6    21   1
    24     8    22   1
    25    12    23   1
    26    13    24   1
    27    14    25   1
    28    15    26   1
    29    16    27   1
    30    17    28   1
    31    18    29   1
@<TRIPOS>SUBSTRUCTURE
     1  MOL      1

