@<TRIPOS>MOLECULE
4des_ligand_004
    29    31
SMALL
GAST_HUCK
****
This file was generated by PARSER (from files_GN.cpp)

@<TRIPOS>ATOM
      1 C2         20.4840   -0.8263   -3.9036 C.2         1 MOL       0.1434
      2 C3         21.5584   -1.0158   -3.1115 C.2         1 MOL       0.0085
      3 C4         21.6542   -0.3734   -1.9130 C.2         1 MOL       0.1012
      4 C5         20.6650    0.5283   -1.4879 C.ar        1 MOL       0.0778
      5 C6         20.6859    1.2528   -0.2635 C.ar        1 MOL       0.0936
      6 C7         19.6240    2.1190    0.0594 C.ar        1 MOL      -0.0085
      7 C8         18.5321    2.2844   -0.8178 C.ar        1 MOL       0.0776
      8 C9         18.5036    1.5665   -2.0253 C.ar        1 MOL      -0.0032
      9 C10        19.5551    0.6945   -2.3629 C.ar        1 MOL       0.1294
     10 O1         19.4639   -0.0054   -3.5520 O.3         1 MOL      -0.2412
     11 O4         22.6054   -0.6571   -1.1960 O.2         1 MOL      -0.4247
     12 O5         21.6920    1.0968    0.6395 O.3         1 MOL      -0.3325
     13 O7         17.5029    3.1113   -0.5130 O.3         1 MOL      -0.3350
     14 C2'        21.1102   -1.1532   -6.2382 C.ar        1 MOL      -0.0449
     15 C3'        20.9460   -1.8474   -7.4511 C.ar        1 MOL      -0.0570
     16 C4'        20.0204   -2.9005   -7.5456 C.ar        1 MOL      -0.0581
     17 C5'        19.2516   -3.2567   -6.4252 C.ar        1 MOL      -0.0570
     18 C6'        19.4017   -2.5579   -5.2101 C.ar        1 MOL      -0.0449
     19 C1'        20.3408   -1.5047   -5.1033 C.ar        1 MOL       0.0307
     20 H1         22.2836   -1.6414   -3.3941 H           1 MOL       0.0422
     21 H2         19.6336    2.6294    0.9459 H           1 MOL       0.0403
     22 H3         17.7130    1.6798   -2.6670 H           1 MOL       0.0401
     23 H4         21.9217    1.9958    0.9837 H           1 MOL       0.2503
     24 H5         17.8586    3.7686    0.1282 H           1 MOL       0.2494
     25 H6         21.7828   -0.3825   -6.1945 H           1 MOL       0.0661
     26 H7         21.5011   -1.5810   -8.2696 H           1 MOL       0.0628
     27 H8         19.9077   -3.4035   -8.4260 H           1 MOL       0.0648
     28 H9         18.5774   -4.0236   -6.4846 H           1 MOL       0.0628
     29 H10        18.8268   -2.8310   -4.4117 H           1 MOL       0.0661
@<TRIPOS>BOND
     1     1     2   2
     2     1    10   1
     3    19     1   1
     4     2     3   1
     5     3     4   1
     6     3    11   2
     7     4     5  ar
     8     9     4  ar
     9     5     6  ar
    10     5    12   1
    11     7     6  ar
    12     8     7  ar
    13     7    13   1
    14     9     8  ar
    15    10     9   1
    16    14    15  ar
    17    14    19  ar
    18    15    16  ar
    19    16    17  ar
    20    17    18  ar
    21    18    19  ar
    22     2    20   1
    23     6    21   1
    24     8    22   1
    25    12    23   1
    26    13    24   1
    27    14    25   1
    28    15    26   1
    29    16    27   1
    30    17    28   1
    31    18    29   1
@<TRIPOS>SUBSTRUCTURE
     1  MOL      1

