@<TRIPOS>MOLECULE
4des_ligand_006
    29    31
SMALL
GAST_HUCK
****
This file was generated by PARSER (from files_GN.cpp)

@<TRIPOS>ATOM
      1 C2         20.0388   -0.2230   -7.2401 C.2         1 MOL       0.1434
      2 C3         19.3081    0.8858   -7.5016 C.2         1 MOL       0.0085
      3 C4         18.8507    1.6765   -6.4929 C.2         1 MOL       0.1012
      4 C5         19.2141    1.4310   -5.1652 C.ar        1 MOL       0.0778
      5 C6         18.9026    2.2781   -4.0728 C.ar        1 MOL       0.0936
      6 C7         19.3358    1.9402   -2.7742 C.ar        1 MOL      -0.0085
      7 C8         20.0713    0.7626   -2.5439 C.ar        1 MOL       0.0776
      8 C9         20.3758   -0.0847   -3.6228 C.ar        1 MOL      -0.0032
      9 C10        19.9612    0.2460   -4.9267 C.ar        1 MOL       0.1294
     10 O1         20.2791   -0.6156   -5.9576 O.3         1 MOL      -0.2412
     11 O4         18.1264    2.6163   -6.7933 O.2         1 MOL      -0.4247
     12 O5         18.1822    3.4213   -4.2312 O.3         1 MOL      -0.3325
     13 O7         20.4450    0.4438   -1.2824 O.3         1 MOL      -0.3350
     14 C2'        20.3468   -2.4235   -8.2427 C.ar        1 MOL      -0.0449
     15 C3'        20.8605   -3.2405   -9.2648 C.ar        1 MOL      -0.0570
     16 C4'        21.6353   -2.6814  -10.2978 C.ar        1 MOL      -0.0581
     17 C5'        21.8650   -1.2950  -10.3241 C.ar        1 MOL      -0.0570
     18 C6'        21.3322   -0.4737   -9.3185 C.ar        1 MOL      -0.0449
     19 C1'        20.5597   -1.0228   -8.2587 C.ar        1 MOL       0.0307
     20 H1         19.0806    1.1189   -8.4462 H           1 MOL       0.0422
     21 H2         19.0977    2.5529   -1.9863 H           1 MOL       0.0403
     22 H3         20.9062   -0.9465   -3.4546 H           1 MOL       0.0401
     23 H4         18.7842    4.1486   -3.9514 H           1 MOL       0.2503
     24 H5         21.0346    1.1744   -0.9886 H           1 MOL       0.2494
     25 H6         19.7893   -2.8591   -7.5029 H           1 MOL       0.0661
     26 H7         20.6739   -4.2452   -9.2607 H           1 MOL       0.0628
     27 H8         22.0245   -3.2841  -11.0262 H           1 MOL       0.0648
     28 H9         22.4214   -0.8877  -11.0773 H           1 MOL       0.0628
     29 H10        21.5271    0.5288   -9.3592 H           1 MOL       0.0661
@<TRIPOS>BOND
     1     1     2   2
     2     1    10   1
     3    19     1   1
     4     2     3   1
     5     3     4   1
     6     3    11   2
     7     4     5  ar
     8     9     4  ar
     9     5     6  ar
    10     5    12   1
    11     7     6  ar
    12     8     7  ar
    13     7    13   1
    14     9     8  ar
    15    10     9   1
    16    14    15  ar
    17    14    19  ar
    18    15    16  ar
    19    16    17  ar
    20    17    18  ar
    21    18    19  ar
    22     2    20   1
    23     6    21   1
    24     8    22   1
    25    12    23   1
    26    13    24   1
    27    14    25   1
    28    15    26   1
    29    16    27   1
    30    17    28   1
    31    18    29   1
@<TRIPOS>SUBSTRUCTURE
     1  MOL      1

