@<TRIPOS>MOLECULE
4des_ligand_018
    29    31
SMALL
GAST_HUCK
****
This file was generated by PARSER (from files_GN.cpp)

@<TRIPOS>ATOM
      1 C2         25.1372   -2.6162    1.6857 C.2         1 MOL       0.1434
      2 C3         25.8238   -2.8924    0.5569 C.2         1 MOL       0.0085
      3 C4         27.0130   -3.5478    0.6245 C.2         1 MOL       0.1012
      4 C5         27.4756   -4.0694    1.8411 C.ar        1 MOL       0.0778
      5 C6         28.6250   -4.8838    1.9853 C.ar        1 MOL       0.0936
      6 C7         28.9888   -5.3818    3.2516 C.ar        1 MOL      -0.0085
      7 C8         28.2149   -5.0765    4.3862 C.ar        1 MOL       0.0776
      8 C9         27.0755   -4.2650    4.2597 C.ar        1 MOL      -0.0032
      9 C10        26.7081   -3.7642    2.9978 C.ar        1 MOL       0.1294
     10 O1         25.6009   -2.9499    2.9157 O.3         1 MOL      -0.2412
     11 O4         27.6372   -3.7065   -0.4157 O.2         1 MOL      -0.4247
     12 O5         29.4019   -5.2123    0.9234 O.3         1 MOL      -0.3325
     13 O7         28.5629   -5.5540    5.6044 O.3         1 MOL      -0.3350
     14 C2'        22.8400   -2.4238    0.8999 C.ar        1 MOL      -0.0449
     15 C3'        21.6180   -1.7288    0.9068 C.ar        1 MOL      -0.0570
     16 C4'        21.4883   -0.5358    1.6413 C.ar        1 MOL      -0.0581
     17 C5'        22.5759   -0.0475    2.3868 C.ar        1 MOL      -0.0570
     18 C6'        23.7908   -0.7508    2.4037 C.ar        1 MOL      -0.0449
     19 C1'        23.9366   -1.9390    1.6514 C.ar        1 MOL       0.0307
     20 H1         25.4676   -2.5973   -0.3253 H           1 MOL       0.0422
     21 H2         29.8225   -5.9624    3.3464 H           1 MOL       0.0403
     22 H3         26.5085   -4.0422    5.0832 H           1 MOL       0.0401
     23 H4         29.1682   -6.1453    0.7173 H           1 MOL       0.2503
     24 H5         28.3386   -6.5118    5.5805 H           1 MOL       0.2494
     25 H6         22.9160   -3.2977    0.3672 H           1 MOL       0.0661
     26 H7         20.8230   -2.0922    0.3790 H           1 MOL       0.0628
     27 H8         20.6007   -0.0316    1.6434 H           1 MOL       0.0648
     28 H9         22.4875    0.8194    2.9203 H           1 MOL       0.0628
     29 H10        24.5735   -0.3795    2.9515 H           1 MOL       0.0661
@<TRIPOS>BOND
     1     1     2   2
     2     1    10   1
     3    19     1   1
     4     2     3   1
     5     3     4   1
     6     3    11   2
     7     4     5  ar
     8     9     4  ar
     9     5     6  ar
    10     5    12   1
    11     7     6  ar
    12     8     7  ar
    13     7    13   1
    14     9     8  ar
    15    10     9   1
    16    14    15  ar
    17    14    19  ar
    18    15    16  ar
    19    16    17  ar
    20    17    18  ar
    21    18    19  ar
    22     2    20   1
    23     6    21   1
    24     8    22   1
    25    12    23   1
    26    13    24   1
    27    14    25   1
    28    15    26   1
    29    16    27   1
    30    17    28   1
    31    18    29   1
@<TRIPOS>SUBSTRUCTURE
     1  MOL      1

