@<TRIPOS>MOLECULE
4des_ligand_009
    29    31
SMALL
GAST_HUCK
****
This file was generated by PARSER (from files_GN.cpp)

@<TRIPOS>ATOM
      1 C2         21.8045   -0.3123   -5.9245 C.2         1 MOL       0.1434
      2 C3         22.3225   -1.3939   -6.5502 C.2         1 MOL       0.0085
      3 C4         22.2904   -1.5010   -7.9056 C.2         1 MOL       0.1012
      4 C5         21.8215   -0.4486   -8.7033 C.ar        1 MOL       0.0778
      5 C6         21.7970   -0.4495  -10.1224 C.ar        1 MOL       0.0936
      6 C7         21.3185    0.6742  -10.8226 C.ar        1 MOL      -0.0085
      7 C8         20.8593    1.8069  -10.1264 C.ar        1 MOL       0.0776
      8 C9         20.8561    1.8128   -8.7215 C.ar        1 MOL      -0.0032
      9 C10        21.3288    0.6928   -8.0125 C.ar        1 MOL       0.1294
     10 O1         21.2795    0.7239   -6.6331 O.3         1 MOL      -0.2412
     11 O4         22.6159   -2.5753   -8.3937 O.2         1 MOL      -0.4247
     12 O5         22.2172   -1.5020  -10.8641 O.3         1 MOL      -0.3325
     13 O7         20.4335    2.8899  -10.8192 O.3         1 MOL      -0.3350
     14 C2'        22.7531   -0.6755   -3.6851 C.ar        1 MOL      -0.0449
     15 C3'        22.6132   -0.6276   -2.2875 C.ar        1 MOL      -0.0570
     16 C4'        21.4248   -0.1457   -1.7140 C.ar        1 MOL      -0.0581
     17 C5'        20.3781    0.2983   -2.5396 C.ar        1 MOL      -0.0570
     18 C6'        20.5192    0.2621   -3.9395 C.ar        1 MOL      -0.0449
     19 C1'        21.7046   -0.2407   -4.5361 C.ar        1 MOL       0.0307
     20 H1         22.6843   -2.1513   -6.0133 H           1 MOL       0.0422
     21 H2         21.3029    0.6689  -11.8449 H           1 MOL       0.0403
     22 H3         20.5092    2.6313   -8.2162 H           1 MOL       0.0401
     23 H4         23.1044   -1.7269  -10.5133 H           1 MOL       0.2503
     24 H5         19.4979    3.0053  -10.5538 H           1 MOL       0.2494
     25 H6         23.6318   -1.0190   -4.0766 H           1 MOL       0.0661
     26 H7         23.3794   -0.9435   -1.6891 H           1 MOL       0.0628
     27 H8         21.3222   -0.1150   -0.6980 H           1 MOL       0.0648
     28 H9         19.5078    0.6411   -2.1226 H           1 MOL       0.0628
     29 H10        19.7346    0.5767   -4.5171 H           1 MOL       0.0661
@<TRIPOS>BOND
     1     1     2   2
     2     1    10   1
     3    19     1   1
     4     2     3   1
     5     3     4   1
     6     3    11   2
     7     4     5  ar
     8     9     4  ar
     9     5     6  ar
    10     5    12   1
    11     7     6  ar
    12     8     7  ar
    13     7    13   1
    14     9     8  ar
    15    10     9   1
    16    14    15  ar
    17    14    19  ar
    18    15    16  ar
    19    16    17  ar
    20    17    18  ar
    21    18    19  ar
    22     2    20   1
    23     6    21   1
    24     8    22   1
    25    12    23   1
    26    13    24   1
    27    14    25   1
    28    15    26   1
    29    16    27   1
    30    17    28   1
    31    18    29   1
@<TRIPOS>SUBSTRUCTURE
     1  MOL      1

