@<TRIPOS>MOLECULE
4des_ligand_016
    29    31
SMALL
GAST_HUCK
****
This file was generated by PARSER (from files_GN.cpp)

@<TRIPOS>ATOM
      1 C2         22.2222   -0.6564   -5.6717 C.2         1 MOL       0.1434
      2 C3         21.0342   -0.4183   -5.0709 C.2         1 MOL       0.0085
      3 C4         20.1815    0.5341   -5.5455 C.2         1 MOL       0.1012
      4 C5         20.4898    1.2810   -6.6876 C.ar        1 MOL       0.0778
      5 C6         19.6575    2.2786   -7.2602 C.ar        1 MOL       0.0936
      6 C7         20.0885    2.9914   -8.3935 C.ar        1 MOL      -0.0085
      7 C8         21.3341    2.7188   -8.9841 C.ar        1 MOL       0.0776
      8 C9         22.1563    1.7187   -8.4383 C.ar        1 MOL      -0.0032
      9 C10        21.7423    1.0082   -7.2958 C.ar        1 MOL       0.1294
     10 O1         22.5825    0.0409   -6.7854 O.3         1 MOL      -0.2412
     11 O4         19.1400    0.7217   -4.9323 O.2         1 MOL      -0.4247
     12 O5         18.4519    2.6220   -6.7424 O.3         1 MOL      -0.3325
     13 O7         21.7357    3.4013  -10.0827 O.3         1 MOL      -0.3350
     14 C2'        23.9709   -2.3029   -6.1460 C.ar        1 MOL      -0.0449
     15 C3'        24.8829   -3.2884   -5.7228 C.ar        1 MOL      -0.0570
     16 C4'        24.9848   -3.6107   -4.3598 C.ar        1 MOL      -0.0581
     17 C5'        24.1881   -2.9362   -3.4211 C.ar        1 MOL      -0.0570
     18 C6'        23.2700   -1.9597   -3.8464 C.ar        1 MOL      -0.0449
     19 C1'        23.1319   -1.6270   -5.2205 C.ar        1 MOL       0.0307
     20 H1         20.7456   -0.9675   -4.2913 H           1 MOL       0.0422
     21 H2         19.4926    3.7166   -8.7910 H           1 MOL       0.0403
     22 H3         23.0586    1.5139   -8.8693 H           1 MOL       0.0401
     23 H4         17.8768    1.8520   -6.9252 H           1 MOL       0.2503
     24 H5         21.5503    4.3428   -9.8797 H           1 MOL       0.2494
     25 H6         23.9036   -2.1112   -7.1492 H           1 MOL       0.0661
     26 H7         25.4702   -3.7733   -6.4057 H           1 MOL       0.0628
     27 H8         25.6544   -4.3178   -4.0485 H           1 MOL       0.0648
     28 H9         24.2825   -3.1475   -2.4257 H           1 MOL       0.0628
     29 H10        22.7215   -1.4783   -3.1301 H           1 MOL       0.0661
@<TRIPOS>BOND
     1     1     2   2
     2     1    10   1
     3    19     1   1
     4     2     3   1
     5     3     4   1
     6     3    11   2
     7     4     5  ar
     8     9     4  ar
     9     5     6  ar
    10     5    12   1
    11     7     6  ar
    12     8     7  ar
    13     7    13   1
    14     9     8  ar
    15    10     9   1
    16    14    15  ar
    17    14    19  ar
    18    15    16  ar
    19    16    17  ar
    20    17    18  ar
    21    18    19  ar
    22     2    20   1
    23     6    21   1
    24     8    22   1
    25    12    23   1
    26    13    24   1
    27    14    25   1
    28    15    26   1
    29    16    27   1
    30    17    28   1
    31    18    29   1
@<TRIPOS>SUBSTRUCTURE
     1  MOL      1

