@<TRIPOS>MOLECULE
4des_ligand_024
    29    31
SMALL
GAST_HUCK
****
This file was generated by PARSER (from files_GN.cpp)

@<TRIPOS>ATOM
      1 C2         23.4017   -2.5602    0.4739 C.2         1 MOL       0.1434
      2 C3         24.4714   -3.1178    1.0863 C.2         1 MOL       0.0085
      3 C4         24.4568   -3.3553    2.4284 C.2         1 MOL       0.1012
      4 C5         23.4047   -2.9061    3.2371 C.ar        1 MOL       0.0778
      5 C6         23.3761   -2.9857    4.6545 C.ar        1 MOL       0.0936
      6 C7         22.3085   -2.4177    5.3753 C.ar        1 MOL      -0.0085
      7 C8         21.2547   -1.7725    4.7020 C.ar        1 MOL       0.0776
      8 C9         21.2523   -1.7210    3.2958 C.ar        1 MOL      -0.0032
      9 C10        22.3155   -2.2890    2.5676 C.ar        1 MOL       0.1294
     10 O1         22.2823   -2.2233    1.1858 O.3         1 MOL      -0.2412
     11 O4         25.4064   -3.9599    2.9076 O.2         1 MOL      -0.4247
     12 O5         24.3581   -3.5768    5.3738 O.3         1 MOL      -0.3325
     13 O7         20.2384   -1.2221    5.4106 O.3         1 MOL      -0.3350
     14 C2'        22.2943   -3.0858   -1.6189 C.ar        1 MOL      -0.0449
     15 C3'        22.1553   -2.9387   -3.0095 C.ar        1 MOL      -0.0570
     16 C4'        23.0416   -2.1058   -3.7152 C.ar        1 MOL      -0.0581
     17 C5'        24.0875   -1.4524   -3.0369 C.ar        1 MOL      -0.0570
     18 C6'        24.2357   -1.6194   -1.6478 C.ar        1 MOL      -0.0449
     19 C1'        23.3243   -2.4198   -0.9089 C.ar        1 MOL       0.0307
     20 H1         25.2577   -3.4022    0.5471 H           1 MOL       0.0422
     21 H2         22.2943   -2.4750    6.3986 H           1 MOL       0.0403
     22 H3         20.4770   -1.2722    2.8088 H           1 MOL       0.0401
     23 H4         24.2097   -4.5395    5.2450 H           1 MOL       0.2503
     24 H5         20.6080   -0.3856    5.7614 H           1 MOL       0.2494
     25 H6         21.6404   -3.7014   -1.1288 H           1 MOL       0.0661
     26 H7         21.4064   -3.4301   -3.5083 H           1 MOL       0.0628
     27 H8         22.9302   -1.9775   -4.7239 H           1 MOL       0.0648
     28 H9         24.7278   -0.8435   -3.5510 H           1 MOL       0.0628
     29 H10        24.9927   -1.1240   -1.1698 H           1 MOL       0.0661
@<TRIPOS>BOND
     1     1     2   2
     2     1    10   1
     3    19     1   1
     4     2     3   1
     5     3     4   1
     6     3    11   2
     7     4     5  ar
     8     9     4  ar
     9     5     6  ar
    10     5    12   1
    11     7     6  ar
    12     8     7  ar
    13     7    13   1
    14     9     8  ar
    15    10     9   1
    16    14    15  ar
    17    14    19  ar
    18    15    16  ar
    19    16    17  ar
    20    17    18  ar
    21    18    19  ar
    22     2    20   1
    23     6    21   1
    24     8    22   1
    25    12    23   1
    26    13    24   1
    27    14    25   1
    28    15    26   1
    29    16    27   1
    30    17    28   1
    31    18    29   1
@<TRIPOS>SUBSTRUCTURE
     1  MOL      1

