@<TRIPOS>MOLECULE
4des_ligand_012
    29    31
SMALL
GAST_HUCK
****
This file was generated by PARSER (from files_GN.cpp)

@<TRIPOS>ATOM
      1 C2         21.2268    0.1756   -5.9998 C.2         1 MOL       0.1434
      2 C3         20.6187    1.3095   -6.4188 C.2         1 MOL       0.0085
      3 C4         20.5741    1.6532   -7.7385 C.2         1 MOL       0.1012
      4 C5         21.0819    0.8009   -8.7226 C.ar        1 MOL       0.0778
      5 C6         21.0446    1.0537  -10.1169 C.ar        1 MOL       0.0936
      6 C7         21.5533    0.1038  -11.0230 C.ar        1 MOL      -0.0085
      7 C8         22.0992   -1.1064  -10.5568 C.ar        1 MOL       0.0776
      8 C9         22.1625   -1.3601   -9.1758 C.ar        1 MOL      -0.0032
      9 C10        21.6691   -0.4085   -8.2657 C.ar        1 MOL       0.1294
     10 O1         21.7785   -0.6757   -6.9140 O.3         1 MOL      -0.2412
     11 O4         20.0606    2.7233   -8.0358 O.2         1 MOL      -0.4247
     12 O5         20.5547    2.2122  -10.6234 O.3         1 MOL      -0.3325
     13 O7         22.5774   -2.0079  -11.4524 O.3         1 MOL      -0.3350
     14 C2'        21.3701   -1.5901   -4.3049 C.ar        1 MOL      -0.0449
     15 C3'        21.4477   -2.0138   -2.9646 C.ar        1 MOL      -0.0570
     16 C4'        21.4766   -1.0646   -1.9292 C.ar        1 MOL      -0.0581
     17 C5'        21.4435    0.3046   -2.2399 C.ar        1 MOL      -0.0570
     18 C6'        21.3735    0.7226   -3.5816 C.ar        1 MOL      -0.0449
     19 C1'        21.3171   -0.2131   -4.6494 C.ar        1 MOL       0.0307
     20 H1         20.1564    1.8946   -5.7648 H           1 MOL       0.0422
     21 H2         21.5155    0.2863  -12.0294 H           1 MOL       0.0403
     22 H3         22.5629   -2.2330   -8.8317 H           1 MOL       0.0401
     23 H4         19.5685    2.1511  -10.4742 H           1 MOL       0.2503
     24 H5         22.3077   -2.8953  -11.1022 H           1 MOL       0.2494
     25 H6         21.3270   -2.3139   -5.0275 H           1 MOL       0.0661
     26 H7         21.4687   -3.0116   -2.7414 H           1 MOL       0.0628
     27 H8         21.5208   -1.3695   -0.9538 H           1 MOL       0.0648
     28 H9         21.4664    0.9984   -1.4883 H           1 MOL       0.0628
     29 H10        21.3819    1.7306   -3.7593 H           1 MOL       0.0661
@<TRIPOS>BOND
     1     1     2   2
     2     1    10   1
     3    19     1   1
     4     2     3   1
     5     3     4   1
     6     3    11   2
     7     4     5  ar
     8     9     4  ar
     9     5     6  ar
    10     5    12   1
    11     7     6  ar
    12     8     7  ar
    13     7    13   1
    14     9     8  ar
    15    10     9   1
    16    14    15  ar
    17    14    19  ar
    18    15    16  ar
    19    16    17  ar
    20    17    18  ar
    21    18    19  ar
    22     2    20   1
    23     6    21   1
    24     8    22   1
    25    12    23   1
    26    13    24   1
    27    14    25   1
    28    15    26   1
    29    16    27   1
    30    17    28   1
    31    18    29   1
@<TRIPOS>SUBSTRUCTURE
     1  MOL      1

