@<TRIPOS>MOLECULE
4des_ligand_017
    29    31
SMALL
GAST_HUCK
****
This file was generated by PARSER (from files_GN.cpp)

@<TRIPOS>ATOM
      1 C2         18.4154    1.5565   -1.8335 C.2         1 MOL       0.1434
      2 C3         17.3883    0.7440   -2.1810 C.2         1 MOL       0.0085
      3 C4         16.1701    0.8771   -1.5846 C.2         1 MOL       0.1012
      4 C5         16.0035    1.7202   -0.4773 C.ar        1 MOL       0.0778
      5 C6         14.8319    1.7938    0.3216 C.ar        1 MOL       0.0936
      6 C7         14.7911    2.6612    1.4339 C.ar        1 MOL      -0.0085
      7 C8         15.9117    3.4387    1.7812 C.ar        1 MOL       0.0776
      8 C9         17.0804    3.3703    1.0010 C.ar        1 MOL      -0.0032
      9 C10        17.1213    2.5312   -0.1268 C.ar        1 MOL       0.1294
     10 O1         18.2649    2.5236   -0.8913 O.3         1 MOL      -0.2412
     11 O4         15.2334    0.2334   -2.0398 O.2         1 MOL      -0.4247
     12 O5         13.7341    1.0368    0.0780 O.3         1 MOL      -0.3325
     13 O7         15.8688    4.2396    2.8737 O.3         1 MOL      -0.3350
     14 C2'        20.3866    0.2925   -2.5710 C.ar        1 MOL      -0.0449
     15 C3'        21.6513    0.2639   -3.1878 C.ar        1 MOL      -0.0570
     16 C4'        22.2030    1.4448   -3.7170 C.ar        1 MOL      -0.0581
     17 C5'        21.4913    2.6531   -3.6253 C.ar        1 MOL      -0.0570
     18 C6'        20.2390    2.6878   -2.9862 C.ar        1 MOL      -0.0449
     19 C1'        19.6585    1.5042   -2.4591 C.ar        1 MOL       0.0307
     20 H1         17.5095    0.0725   -2.9060 H           1 MOL       0.0422
     21 H2         13.9477    2.7185    2.0037 H           1 MOL       0.0403
     22 H3         17.8921    3.9381    1.2459 H           1 MOL       0.0401
     23 H4         14.0668    0.1102    0.0023 H           1 MOL       0.2503
     24 H5         15.3815    5.0477    2.5736 H           1 MOL       0.2494
     25 H6         20.0112   -0.5782   -2.1844 H           1 MOL       0.0661
     26 H7         22.1664   -0.6103   -3.2400 H           1 MOL       0.0628
     27 H8         23.1239    1.4224   -4.1649 H           1 MOL       0.0648
     28 H9         21.8877    3.5081   -4.0152 H           1 MOL       0.0628
     29 H10        19.7445    3.5788   -2.9396 H           1 MOL       0.0661
@<TRIPOS>BOND
     1     1     2   2
     2     1    10   1
     3    19     1   1
     4     2     3   1
     5     3     4   1
     6     3    11   2
     7     4     5  ar
     8     9     4  ar
     9     5     6  ar
    10     5    12   1
    11     7     6  ar
    12     8     7  ar
    13     7    13   1
    14     9     8  ar
    15    10     9   1
    16    14    15  ar
    17    14    19  ar
    18    15    16  ar
    19    16    17  ar
    20    17    18  ar
    21    18    19  ar
    22     2    20   1
    23     6    21   1
    24     8    22   1
    25    12    23   1
    26    13    24   1
    27    14    25   1
    28    15    26   1
    29    16    27   1
    30    17    28   1
    31    18    29   1
@<TRIPOS>SUBSTRUCTURE
     1  MOL      1

