@<TRIPOS>MOLECULE
4des_ligand_011
    29    31
SMALL
GAST_HUCK
****
This file was generated by PARSER (from files_GN.cpp)

@<TRIPOS>ATOM
      1 C2         21.2606   -1.6494   -3.4909 C.2         1 MOL       0.1434
      2 C3         21.7473   -2.7023   -2.7978 C.2         1 MOL       0.0085
      3 C4         21.9515   -2.5997   -1.4548 C.2         1 MOL       0.1012
      4 C5         21.6428   -1.4234   -0.7558 C.ar        1 MOL       0.0778
      5 C6         21.7781   -1.2381    0.6463 C.ar        1 MOL       0.0936
      6 C7         21.4622    0.0038    1.2352 C.ar        1 MOL      -0.0085
      7 C8         21.0136    1.0735    0.4385 C.ar        1 MOL       0.0776
      8 C9         20.8510    0.8984   -0.9457 C.ar        1 MOL      -0.0032
      9 C10        21.1581   -0.3402   -1.5408 C.ar        1 MOL       0.1294
     10 O1         20.9919   -0.4594   -2.9056 O.3         1 MOL      -0.2412
     11 O4         22.3774   -3.5927   -0.8814 O.2         1 MOL      -0.4247
     12 O5         22.2565   -2.1986    1.4799 O.3         1 MOL      -0.3325
     13 O7         20.7542    2.2823    0.9900 O.3         1 MOL      -0.3350
     14 C2'        19.7847   -2.3343   -5.2866 C.ar        1 MOL      -0.0449
     15 C3'        19.5059   -2.4212   -6.6649 C.ar        1 MOL      -0.0570
     16 C4'        20.4306   -1.9202   -7.6001 C.ar        1 MOL      -0.0581
     17 C5'        21.6252   -1.3169   -7.1624 C.ar        1 MOL      -0.0570
     18 C6'        21.9029   -1.2251   -5.7854 C.ar        1 MOL      -0.0449
     19 C1'        20.9892   -1.7420   -4.8382 C.ar        1 MOL       0.0307
     20 H1         21.9440   -3.5614   -3.2582 H           1 MOL       0.0422
     21 H2         21.5792    0.1375    2.2414 H           1 MOL       0.0403
     22 H3         20.5078    1.6734   -1.5173 H           1 MOL       0.0401
     23 H4         23.1149   -2.4692    1.0962 H           1 MOL       0.2503
     24 H5         21.6100    2.5712    1.3722 H           1 MOL       0.2494
     25 H6         19.0955   -2.6838   -4.6151 H           1 MOL       0.0661
     26 H7         18.6288   -2.8369   -6.9869 H           1 MOL       0.0628
     27 H8         20.2259   -1.9760   -8.5992 H           1 MOL       0.0648
     28 H9         22.2945   -0.9506   -7.8410 H           1 MOL       0.0628
     29 H10        22.7760   -0.7861   -5.4825 H           1 MOL       0.0661
@<TRIPOS>BOND
     1     1     2   2
     2     1    10   1
     3    19     1   1
     4     2     3   1
     5     3     4   1
     6     3    11   2
     7     4     5  ar
     8     9     4  ar
     9     5     6  ar
    10     5    12   1
    11     7     6  ar
    12     8     7  ar
    13     7    13   1
    14     9     8  ar
    15    10     9   1
    16    14    15  ar
    17    14    19  ar
    18    15    16  ar
    19    16    17  ar
    20    17    18  ar
    21    18    19  ar
    22     2    20   1
    23     6    21   1
    24     8    22   1
    25    12    23   1
    26    13    24   1
    27    14    25   1
    28    15    26   1
    29    16    27   1
    30    17    28   1
    31    18    29   1
@<TRIPOS>SUBSTRUCTURE
     1  MOL      1

