@<TRIPOS>MOLECULE
4des_ligand_026
    29    31
SMALL
GAST_HUCK
****
This file was generated by PARSER (from files_GN.cpp)

@<TRIPOS>ATOM
      1 C2         21.1566    0.7970    0.9760 C.2         1 MOL       0.1434
      2 C3         21.4253    1.3315    2.1903 C.2         1 MOL       0.0085
      3 C4         22.2426    0.6955    3.0779 C.2         1 MOL       0.1012
      4 C5         22.8437   -0.5294    2.7629 C.ar        1 MOL       0.0778
      5 C6         23.7131   -1.2552    3.6203 C.ar        1 MOL       0.0936
      6 C7         24.2634   -2.4817    3.1934 C.ar        1 MOL      -0.0085
      7 C8         23.9580   -3.0011    1.9225 C.ar        1 MOL       0.0776
      8 C9         23.0994   -2.2880    1.0665 C.ar        1 MOL      -0.0032
      9 C10        22.5474   -1.0615    1.4801 C.ar        1 MOL       0.1294
     10 O1         21.7164   -0.3881    0.6074 O.3         1 MOL      -0.2412
     11 O4         22.4365    1.2371    4.1590 O.2         1 MOL      -0.4247
     12 O5         24.0346   -0.7987    4.8600 O.3         1 MOL      -0.3325
     13 O7         24.4968   -4.1857    1.5386 O.3         1 MOL      -0.3350
     14 C2'        20.6619    1.3713   -1.3502 C.ar        1 MOL      -0.0449
     15 C3'        19.8469    1.9814   -2.3224 C.ar        1 MOL      -0.0570
     16 C4'        18.6704    2.6457   -1.9382 C.ar        1 MOL      -0.0581
     17 C5'        18.3090    2.6965   -0.5820 C.ar        1 MOL      -0.0570
     18 C6'        19.1266    2.0883    0.3893 C.ar        1 MOL      -0.0449
     19 C1'        20.3271    1.4190    0.0292 C.ar        1 MOL       0.0307
     20 H1         21.0595    2.2240    2.4349 H           1 MOL       0.0422
     21 H2         24.8885   -3.0036    3.8124 H           1 MOL       0.0403
     22 H3         22.8772   -2.6599    0.1401 H           1 MOL       0.0401
     23 H4         24.7344   -0.1245    4.7302 H           1 MOL       0.2503
     24 H5         25.1068   -3.9734    0.8018 H           1 MOL       0.2494
     25 H6         21.5185    0.9075   -1.6645 H           1 MOL       0.0661
     26 H7         20.1122    1.9437   -3.3095 H           1 MOL       0.0628
     27 H8         18.0769    3.0871   -2.6447 H           1 MOL       0.0648
     28 H9         17.4472    3.1703   -0.3020 H           1 MOL       0.0628
     29 H10        18.8164    2.1207    1.3629 H           1 MOL       0.0661
@<TRIPOS>BOND
     1     1     2   2
     2     1    10   1
     3    19     1   1
     4     2     3   1
     5     3     4   1
     6     3    11   2
     7     4     5  ar
     8     9     4  ar
     9     5     6  ar
    10     5    12   1
    11     7     6  ar
    12     8     7  ar
    13     7    13   1
    14     9     8  ar
    15    10     9   1
    16    14    15  ar
    17    14    19  ar
    18    15    16  ar
    19    16    17  ar
    20    17    18  ar
    21    18    19  ar
    22     2    20   1
    23     6    21   1
    24     8    22   1
    25    12    23   1
    26    13    24   1
    27    14    25   1
    28    15    26   1
    29    16    27   1
    30    17    28   1
    31    18    29   1
@<TRIPOS>SUBSTRUCTURE
     1  MOL      1

