@<TRIPOS>MOLECULE
4des_ligand_005
    29    31
SMALL
GAST_HUCK
****
This file was generated by PARSER (from files_GN.cpp)

@<TRIPOS>ATOM
      1 C2         20.5167    1.0938   -4.7430 C.2         1 MOL       0.1434
      2 C3         21.3927    0.0692   -4.7882 C.2         1 MOL       0.0085
      3 C4         21.9725   -0.2844   -5.9627 C.2         1 MOL       0.1012
      4 C5         21.7086    0.4290   -7.1434 C.ar        1 MOL       0.0778
      5 C6         22.3329    0.1826   -8.3935 C.ar        1 MOL       0.0936
      6 C7         21.9881    0.9520   -9.5212 C.ar        1 MOL      -0.0085
      7 C8         21.0248    1.9675   -9.4238 C.ar        1 MOL       0.0776
      8 C9         20.4144    2.2350   -8.1827 C.ar        1 MOL      -0.0032
      9 C10        20.7533    1.4785   -7.0487 C.ar        1 MOL       0.1294
     10 O1         20.1404    1.7791   -5.8560 O.3         1 MOL      -0.2412
     11 O4         22.7341   -1.2409   -5.9502 O.2         1 MOL      -0.4247
     12 O5         23.2693   -0.7871   -8.5388 O.3         1 MOL      -0.3325
     13 O7         20.6760    2.6774  -10.5230 O.3         1 MOL      -0.3350
     14 C2'        20.5799    2.6223   -2.8673 C.ar        1 MOL      -0.0449
     15 C3'        20.0566    3.0638   -1.6394 C.ar        1 MOL      -0.0570
     16 C4'        18.9250    2.4249   -1.0919 C.ar        1 MOL      -0.0581
     17 C5'        18.3339    1.3399   -1.7586 C.ar        1 MOL      -0.0570
     18 C6'        18.8672    0.8834   -2.9739 C.ar        1 MOL      -0.0449
     19 C1'        19.9897    1.5307   -3.5446 C.ar        1 MOL       0.0307
     20 H1         21.6433   -0.4057   -3.9441 H           1 MOL       0.0422
     21 H2         22.4340    0.7669  -10.4256 H           1 MOL       0.0403
     22 H3         19.7240    2.9906   -8.1097 H           1 MOL       0.0401
     23 H4         24.1037   -0.3062   -8.7529 H           1 MOL       0.2503
     24 H5         19.7007    2.7098  -10.5123 H           1 MOL       0.2494
     25 H6         21.4012    3.0966   -3.2603 H           1 MOL       0.0661
     26 H7         20.4929    3.8400   -1.1476 H           1 MOL       0.0628
     27 H8         18.5374    2.7533   -0.2034 H           1 MOL       0.0648
     28 H9         17.5153    0.8787   -1.3616 H           1 MOL       0.0628
     29 H10        18.4360    0.0816   -3.4459 H           1 MOL       0.0661
@<TRIPOS>BOND
     1     1     2   2
     2     1    10   1
     3    19     1   1
     4     2     3   1
     5     3     4   1
     6     3    11   2
     7     4     5  ar
     8     9     4  ar
     9     5     6  ar
    10     5    12   1
    11     7     6  ar
    12     8     7  ar
    13     7    13   1
    14     9     8  ar
    15    10     9   1
    16    14    15  ar
    17    14    19  ar
    18    15    16  ar
    19    16    17  ar
    20    17    18  ar
    21    18    19  ar
    22     2    20   1
    23     6    21   1
    24     8    22   1
    25    12    23   1
    26    13    24   1
    27    14    25   1
    28    15    26   1
    29    16    27   1
    30    17    28   1
    31    18    29   1
@<TRIPOS>SUBSTRUCTURE
     1  MOL      1

