@<TRIPOS>MOLECULE
4des_ligand_010
    29    31
SMALL
GAST_HUCK
****
This file was generated by PARSER (from files_GN.cpp)

@<TRIPOS>ATOM
      1 C2         25.0026   -2.3183   -0.4239 C.2         1 MOL       0.1434
      2 C3         24.7394   -2.0450    0.8737 C.2         1 MOL       0.0085
      3 C4         25.6127   -2.4296    1.8464 C.2         1 MOL       0.1012
      4 C5         26.7493   -3.1877    1.5383 C.ar        1 MOL       0.0778
      5 C6         27.6542   -3.7300    2.4905 C.ar        1 MOL       0.0936
      6 C7         28.7198   -4.5522    2.0711 C.ar        1 MOL      -0.0085
      7 C8         28.8990   -4.8462    0.7078 C.ar        1 MOL       0.0776
      8 C9         28.0333   -4.2783   -0.2444 C.ar        1 MOL      -0.0032
      9 C10        26.9699   -3.4567    0.1601 C.ar        1 MOL       0.1294
     10 O1         26.1403   -2.9519   -0.8143 O.3         1 MOL      -0.2412
     11 O4         25.3321   -2.1414    3.0055 O.2         1 MOL      -0.4247
     12 O5         27.5195   -3.5059    3.8246 O.3         1 MOL      -0.3325
     13 O7         29.9037   -5.6854    0.3398 O.3         1 MOL      -0.3350
     14 C2'        22.9627   -2.5766   -1.7215 C.ar        1 MOL      -0.0449
     15 C3'        22.1012   -2.1065   -2.7258 C.ar        1 MOL      -0.0570
     16 C4'        22.4118   -0.9300   -3.4319 C.ar        1 MOL      -0.0581
     17 C5'        23.6034   -0.2340   -3.1431 C.ar        1 MOL      -0.0570
     18 C6'        24.4846   -0.7219   -2.1675 C.ar        1 MOL      -0.0449
     19 C1'        24.1638   -1.8853   -1.4313 C.ar        1 MOL       0.0307
     20 H1         23.9132   -1.5510    1.1188 H           1 MOL       0.0422
     21 H2         29.3524   -4.9549    2.7599 H           1 MOL       0.0403
     22 H3         28.1561   -4.4876   -1.2394 H           1 MOL       0.0401
     23 H4         27.8513   -2.6005    3.9577 H           1 MOL       0.2503
     24 H5         29.7198   -5.9739   -0.5746 H           1 MOL       0.2494
     25 H6         22.7096   -3.4232   -1.2044 H           1 MOL       0.0661
     26 H7         21.2420   -2.6200   -2.9420 H           1 MOL       0.0628
     27 H8         21.7783   -0.5838   -4.1550 H           1 MOL       0.0648
     28 H9         23.8240    0.6289   -3.6494 H           1 MOL       0.0628
     29 H10        25.3474   -0.2037   -1.9779 H           1 MOL       0.0661
@<TRIPOS>BOND
     1     1     2   2
     2     1    10   1
     3    19     1   1
     4     2     3   1
     5     3     4   1
     6     3    11   2
     7     4     5  ar
     8     9     4  ar
     9     5     6  ar
    10     5    12   1
    11     7     6  ar
    12     8     7  ar
    13     7    13   1
    14     9     8  ar
    15    10     9   1
    16    14    15  ar
    17    14    19  ar
    18    15    16  ar
    19    16    17  ar
    20    17    18  ar
    21    18    19  ar
    22     2    20   1
    23     6    21   1
    24     8    22   1
    25    12    23   1
    26    13    24   1
    27    14    25   1
    28    15    26   1
    29    16    27   1
    30    17    28   1
    31    18    29   1
@<TRIPOS>SUBSTRUCTURE
     1  MOL      1

