@<TRIPOS>MOLECULE
4des_ligand_027
    29    31
SMALL
GAST_HUCK
****
This file was generated by PARSER (from files_GN.cpp)

@<TRIPOS>ATOM
      1 C2         21.8750   -0.5727   -2.1347 C.2         1 MOL       0.1434
      2 C3         21.3142    0.4766   -2.7700 C.2         1 MOL       0.0085
      3 C4         20.6710    1.4376   -2.0535 C.2         1 MOL       0.1012
      4 C5         20.6729    1.4180   -0.6545 C.ar        1 MOL       0.0778
      5 C6         20.1188    2.4257    0.1715 C.ar        1 MOL       0.0936
      6 C7         20.1994    2.3210    1.5752 C.ar        1 MOL      -0.0085
      7 C8         20.8322    1.2129    2.1713 C.ar        1 MOL       0.0776
      8 C9         21.3690    0.1962    1.3641 C.ar        1 MOL      -0.0032
      9 C10        21.2823    0.2951   -0.0367 C.ar        1 MOL       0.1294
     10 O1         21.7869   -0.7428   -0.7962 O.3         1 MOL      -0.2412
     11 O4         20.0662    2.3021   -2.6805 O.2         1 MOL      -0.4247
     12 O5         19.5103    3.5190   -0.3336 O.3         1 MOL      -0.3325
     13 O7         20.9271    1.1330    3.5161 O.3         1 MOL      -0.3350
     14 C2'        23.6356   -1.2859   -3.6575 C.ar        1 MOL      -0.0449
     15 C3'        24.2981   -2.3213   -4.3388 C.ar        1 MOL      -0.0570
     16 C4'        23.8578   -3.6504   -4.2052 C.ar        1 MOL      -0.0581
     17 C5'        22.7328   -3.9409   -3.4101 C.ar        1 MOL      -0.0570
     18 C6'        22.0796   -2.9131   -2.7145 C.ar        1 MOL      -0.0449
     19 C1'        22.5197   -1.5756   -2.8343 C.ar        1 MOL       0.0307
     20 H1         21.3293    0.5247   -3.7673 H           1 MOL       0.0422
     21 H2         19.8019    3.0567    2.1673 H           1 MOL       0.0403
     22 H3         21.8268   -0.6072    1.7968 H           1 MOL       0.0401
     23 H4         20.2414    4.0575   -0.7033 H           1 MOL       0.2503
     24 H5         21.6710    1.7265    3.7423 H           1 MOL       0.2494
     25 H6         23.9863   -0.3274   -3.7341 H           1 MOL       0.0661
     26 H7         25.1042   -2.1062   -4.9276 H           1 MOL       0.0628
     27 H8         24.3487   -4.4036   -4.6897 H           1 MOL       0.0648
     28 H9         22.3845   -4.9010   -3.3451 H           1 MOL       0.0628
     29 H10        21.2730   -3.1434   -2.1288 H           1 MOL       0.0661
@<TRIPOS>BOND
     1     1     2   2
     2     1    10   1
     3    19     1   1
     4     2     3   1
     5     3     4   1
     6     3    11   2
     7     4     5  ar
     8     9     4  ar
     9     5     6  ar
    10     5    12   1
    11     7     6  ar
    12     8     7  ar
    13     7    13   1
    14     9     8  ar
    15    10     9   1
    16    14    15  ar
    17    14    19  ar
    18    15    16  ar
    19    16    17  ar
    20    17    18  ar
    21    18    19  ar
    22     2    20   1
    23     6    21   1
    24     8    22   1
    25    12    23   1
    26    13    24   1
    27    14    25   1
    28    15    26   1
    29    16    27   1
    30    17    28   1
    31    18    29   1
@<TRIPOS>SUBSTRUCTURE
     1  MOL      1

