@<TRIPOS>MOLECULE
4des_ligand_015
    29    31
SMALL
GAST_HUCK
****
This file was generated by PARSER (from files_GN.cpp)

@<TRIPOS>ATOM
      1 C2         19.6156    1.4391   -7.1405 C.2         1 MOL       0.1434
      2 C3         19.8508    2.1810   -8.2509 C.2         1 MOL       0.0085
      3 C4         20.5008    1.6522   -9.3291 C.2         1 MOL       0.1012
      4 C5         20.8620    0.3002   -9.3679 C.ar        1 MOL       0.0778
      5 C6         21.4481   -0.3613  -10.4789 C.ar        1 MOL       0.0936
      6 C7         21.7685   -1.7288  -10.3964 C.ar        1 MOL      -0.0085
      7 C8         21.5198   -2.4555   -9.2218 C.ar        1 MOL       0.0776
      8 C9         20.9291   -1.8190   -8.1192 C.ar        1 MOL      -0.0032
      9 C10        20.5938   -0.4541   -8.1935 C.ar        1 MOL       0.1294
     10 O1         19.9935    0.1332   -7.1027 O.3         1 MOL      -0.2412
     11 O4         20.8210    2.4187  -10.2303 O.2         1 MOL      -0.4247
     12 O5         21.6910    0.2486  -11.6630 O.3         1 MOL      -0.3325
     13 O7         21.8234   -3.7722   -9.1737 O.3         1 MOL      -0.3350
     14 C2'        18.1204    3.0464   -5.9587 C.ar        1 MOL      -0.0449
     15 C3'        17.6131    3.5731   -4.7572 C.ar        1 MOL      -0.0570
     16 C4'        17.9654    2.9866   -3.5313 C.ar        1 MOL      -0.0581
     17 C5'        18.8254    1.8791   -3.5094 C.ar        1 MOL      -0.0570
     18 C6'        19.3495    1.3709   -4.7090 C.ar        1 MOL      -0.0449
     19 C1'        19.0273    1.9479   -5.9667 C.ar        1 MOL       0.0307
     20 H1         19.6154    3.1422   -8.2737 H           1 MOL       0.0422
     21 H2         22.1916   -2.2054  -11.1971 H           1 MOL       0.0403
     22 H3         20.7328   -2.3516   -7.2687 H           1 MOL       0.0401
     23 H4         22.2313    1.0382  -11.4480 H           1 MOL       0.2503
     24 H5         22.5733   -3.8368   -8.5442 H           1 MOL       0.2494
     25 H6         17.8230    3.5003   -6.8207 H           1 MOL       0.0661
     26 H7         16.9845    4.3762   -4.7811 H           1 MOL       0.0628
     27 H8         17.5833    3.3574   -2.6573 H           1 MOL       0.0648
     28 H9         19.0796    1.4457   -2.6193 H           1 MOL       0.0628
     29 H10        19.9904    0.5749   -4.6415 H           1 MOL       0.0661
@<TRIPOS>BOND
     1     1     2   2
     2     1    10   1
     3    19     1   1
     4     2     3   1
     5     3     4   1
     6     3    11   2
     7     4     5  ar
     8     9     4  ar
     9     5     6  ar
    10     5    12   1
    11     7     6  ar
    12     8     7  ar
    13     7    13   1
    14     9     8  ar
    15    10     9   1
    16    14    15  ar
    17    14    19  ar
    18    15    16  ar
    19    16    17  ar
    20    17    18  ar
    21    18    19  ar
    22     2    20   1
    23     6    21   1
    24     8    22   1
    25    12    23   1
    26    13    24   1
    27    14    25   1
    28    15    26   1
    29    16    27   1
    30    17    28   1
    31    18    29   1
@<TRIPOS>SUBSTRUCTURE
     1  MOL      1

