@<TRIPOS>MOLECULE
4des_ligand_014
    29    31
SMALL
GAST_HUCK
****
This file was generated by PARSER (from files_GN.cpp)

@<TRIPOS>ATOM
      1 C2         28.7787   -0.1758    3.0417 C.2         1 MOL       0.1434
      2 C3         27.8604    0.2992    2.1789 C.2         1 MOL       0.0085
      3 C4         27.3861   -0.4966    1.1787 C.2         1 MOL       0.1012
      4 C5         27.8436   -1.8086    1.0122 C.ar        1 MOL       0.0778
      5 C6         27.4347   -2.6845   -0.0274 C.ar        1 MOL       0.0936
      6 C7         28.0080   -3.9656   -0.1373 C.ar        1 MOL      -0.0085
      7 C8         28.9696   -4.4044    0.7934 C.ar        1 MOL       0.0776
      8 C9         29.3456   -3.5594    1.8501 C.ar        1 MOL      -0.0032
      9 C10        28.8038   -2.2654    1.9572 C.ar        1 MOL       0.1294
     10 O1         29.2454   -1.4485    2.9848 O.3         1 MOL      -0.2412
     11 O4         26.5567   -0.0196    0.4182 O.2         1 MOL      -0.4247
     12 O5         26.5097   -2.3388   -0.9558 O.3         1 MOL      -0.3325
     13 O7         29.5655   -5.6180    0.6629 O.3         1 MOL      -0.3350
     14 C2'        30.4059    1.4035    3.9066 C.ar        1 MOL      -0.0449
     15 C3'        30.8870    2.1838    4.9750 C.ar        1 MOL      -0.0570
     16 C4'        30.2280    2.1647    6.2183 C.ar        1 MOL      -0.0581
     17 C5'        29.0804    1.3693    6.3902 C.ar        1 MOL      -0.0570
     18 C6'        28.5935    0.5924    5.3243 C.ar        1 MOL      -0.0449
     19 C1'        29.2518    0.6021    4.0758 C.ar        1 MOL       0.0307
     20 H1         27.5152    1.2322    2.2750 H           1 MOL       0.0422
     21 H2         27.7384   -4.5801   -0.9100 H           1 MOL       0.0403
     22 H3         30.0387   -3.8700    2.5313 H           1 MOL       0.0401
     23 H4         26.8808   -1.5451   -1.4031 H           1 MOL       0.2503
     24 H5         29.3441   -5.9482   -0.2371 H           1 MOL       0.2494
     25 H6         30.9000    1.4273    3.0100 H           1 MOL       0.0661
     26 H7         31.7222    2.7614    4.8503 H           1 MOL       0.0628
     27 H8         30.5814    2.7259    6.9943 H           1 MOL       0.0648
     28 H9         28.6024    1.3531    7.2946 H           1 MOL       0.0628
     29 H10        27.7557    0.0170    5.4670 H           1 MOL       0.0661
@<TRIPOS>BOND
     1     1     2   2
     2     1    10   1
     3    19     1   1
     4     2     3   1
     5     3     4   1
     6     3    11   2
     7     4     5  ar
     8     9     4  ar
     9     5     6  ar
    10     5    12   1
    11     7     6  ar
    12     8     7  ar
    13     7    13   1
    14     9     8  ar
    15    10     9   1
    16    14    15  ar
    17    14    19  ar
    18    15    16  ar
    19    16    17  ar
    20    17    18  ar
    21    18    19  ar
    22     2    20   1
    23     6    21   1
    24     8    22   1
    25    12    23   1
    26    13    24   1
    27    14    25   1
    28    15    26   1
    29    16    27   1
    30    17    28   1
    31    18    29   1
@<TRIPOS>SUBSTRUCTURE
     1  MOL      1

