@<TRIPOS>MOLECULE
4des_ligand_023
    29    31
SMALL
GAST_HUCK
****
This file was generated by PARSER (from files_GN.cpp)

@<TRIPOS>ATOM
      1 C2         19.2097    1.6190   -6.1609 C.2         1 MOL       0.1434
      2 C3         18.4832    1.3707   -7.2716 C.2         1 MOL       0.0085
      3 C4         19.0741    0.8677   -8.3949 C.2         1 MOL       0.1012
      4 C5         20.4588    0.6548   -8.4611 C.ar        1 MOL       0.0778
      5 C6         21.1697    0.1463   -9.5866 C.ar        1 MOL       0.0936
      6 C7         22.5614   -0.0512   -9.5098 C.ar        1 MOL      -0.0085
      7 C8         23.2689    0.2818   -8.3456 C.ar        1 MOL       0.0776
      8 C9         22.5851    0.8102   -7.2412 C.ar        1 MOL      -0.0032
      9 C10        21.1882    0.9752   -7.2813 C.ar        1 MOL       0.1294
     10 O1         20.5470    1.4297   -6.1404 O.3         1 MOL      -0.2412
     11 O4         18.3538    0.5527   -9.3323 O.2         1 MOL      -0.4247
     12 O5         20.5687   -0.1594  -10.7629 O.3         1 MOL      -0.3325
     13 O7         24.6010    0.0975   -8.2617 O.3         1 MOL      -0.3350
     14 C2'        17.9041    3.2567   -4.8720 C.ar        1 MOL      -0.0449
     15 C3'        17.3458    3.6716   -3.6475 C.ar        1 MOL      -0.0570
     16 C4'        17.5015    2.8785   -2.4945 C.ar        1 MOL      -0.0581
     17 C5'        18.2262    1.6777   -2.5630 C.ar        1 MOL      -0.0570
     18 C6'        18.7947    1.2646   -3.7853 C.ar        1 MOL      -0.0449
     19 C1'        18.6298    2.0418   -4.9627 C.ar        1 MOL       0.0307
     20 H1         17.4932    1.4866   -7.2598 H           1 MOL       0.0422
     21 H2         23.0603   -0.4310  -10.3146 H           1 MOL       0.0403
     22 H3         23.0898    1.0610   -6.3910 H           1 MOL       0.0401
     23 H4         20.2974    0.7108  -11.1403 H           1 MOL       0.2503
     24 H5         24.7459   -0.8548   -8.4703 H           1 MOL       0.2494
     25 H6         17.8005    3.8606   -5.6879 H           1 MOL       0.0661
     26 H7         16.8211    4.5479   -3.5989 H           1 MOL       0.0628
     27 H8         17.0891    3.1799   -1.6071 H           1 MOL       0.0648
     28 H9         18.3385    1.1023   -1.7232 H           1 MOL       0.0628
     29 H10        19.3093    0.3848   -3.8094 H           1 MOL       0.0661
@<TRIPOS>BOND
     1     1     2   2
     2     1    10   1
     3    19     1   1
     4     2     3   1
     5     3     4   1
     6     3    11   2
     7     4     5  ar
     8     9     4  ar
     9     5     6  ar
    10     5    12   1
    11     7     6  ar
    12     8     7  ar
    13     7    13   1
    14     9     8  ar
    15    10     9   1
    16    14    15  ar
    17    14    19  ar
    18    15    16  ar
    19    16    17  ar
    20    17    18  ar
    21    18    19  ar
    22     2    20   1
    23     6    21   1
    24     8    22   1
    25    12    23   1
    26    13    24   1
    27    14    25   1
    28    15    26   1
    29    16    27   1
    30    17    28   1
    31    18    29   1
@<TRIPOS>SUBSTRUCTURE
     1  MOL      1

