@<TRIPOS>MOLECULE
4dew_ligand_005
    31    33
SMALL
GAST_HUCK
****
This file was generated by PARSER (from files_GN.cpp)

@<TRIPOS>ATOM
      1 C1         20.7808   44.2309   40.1541 C.ar        1 LU2      -0.0033
      2 O1         20.8073   46.0297   41.7130 O.3         1 LU2      -0.3351
      3 C2         21.3676   44.8848   41.2491 C.ar        1 LU2       0.0775
      4 O2         24.2230   42.7065   41.9635 O.3         1 LU2      -0.3326
      5 C3         22.5322   44.3567   41.8398 C.ar        1 LU2      -0.0086
      6 O3         23.9172   40.6798   40.1877 O.2         1 LU2      -0.4275
      7 C4         23.1021   43.1655   41.3515 C.ar        1 LU2       0.0935
      8 O4         20.7259   42.4184   38.6207 O.3         1 LU2      -0.2433
      9 C5         22.5041   42.4766   40.2574 C.ar        1 LU2       0.0767
     10 O5         17.5567   41.6426   34.9263 O.3         1 LU2      -0.3356
     11 C6         21.3445   43.0364   39.6697 C.ar        1 LU2       0.1290
     12 O6         18.3092   39.2757   33.6875 O.3         1 LU2      -0.3321
     13 C7         22.9565   41.2678   39.7014 C.2         1 LU2       0.0969
     14 C8         22.3130   40.7033   38.6333 C.2         1 LU2       0.0024
     15 C9         21.2052   41.2592   38.0967 C.2         1 LU2       0.1329
     16 C10        20.4782   40.7251   36.9990 C.ar        1 LU2       0.0117
     17 C11        19.3567   41.4316   36.4616 C.ar        1 LU2      -0.0240
     18 C12        18.6161   40.9406   35.3783 C.ar        1 LU2       0.1223
     19 C13        19.0046   39.7398   34.7625 C.ar        1 LU2       0.1233
     20 C14        20.1059   39.0200   35.2608 C.ar        1 LU2      -0.0339
     21 C15        20.8158   39.4972   36.3754 C.ar        1 LU2      -0.0626
     22 H1         19.9369   44.6135   39.7117 H           1 LU2       0.0401
     23 H2         20.7759   45.9280   42.6929 H           1 LU2       0.2494
     24 H3         23.8894   41.9979   42.5689 H           1 LU2       0.2503
     25 H4         22.9622   44.8392   42.6263 H           1 LU2       0.0403
     26 H5         16.7632   41.1611   35.2516 H           1 LU2       0.2443
     27 H6         18.9997   39.0828   33.0000 H           1 LU2       0.2472
     28 H7         22.6960   39.8689   38.2678 H           1 LU2       0.0375
     29 H8         19.0640   42.3311   36.8608 H           1 LU2       0.0550
     30 H9         20.3876   38.1483   34.8195 H           1 LU2       0.0530
     31 H10        21.5758   38.9203   36.7010 H           1 LU2       0.0553
@<TRIPOS>BOND
     1     1     3  ar
     2    11     1  ar
     3     3     2   1
     4     3     5  ar
     5     7     4   1
     6     7     5  ar
     7    13     6   2
     8     9     7  ar
     9     8    11   1
    10    15     8   1
    11    11     9  ar
    12    13     9   1
    13    18    10   1
    14    19    12   1
    15    14    13   1
    16    15    14   2
    17    16    15   1
    18    17    16  ar
    19    16    21  ar
    20    18    17  ar
    21    19    18  ar
    22    19    20  ar
    23    20    21  ar
    24     1    22   1
    25     2    23   1
    26     4    24   1
    27     5    25   1
    28    10    26   1
    29    12    27   1
    30    14    28   1
    31    17    29   1
    32    20    30   1
    33    21    31   1
@<TRIPOS>SUBSTRUCTURE
     1  LU2      1

