@<TRIPOS>MOLECULE
4dew_ligand_010
    31    33
SMALL
GAST_HUCK
****
This file was generated by PARSER (from files_GN.cpp)

@<TRIPOS>ATOM
      1 C1         22.0702   43.2588   37.2377 C.ar        1 LU2      -0.0033
      2 O1         22.2984   43.0953   34.8484 O.3         1 LU2      -0.3351
      3 C2         21.7355   42.6705   36.0061 C.ar        1 LU2       0.0775
      4 O2         19.3127   40.1268   37.0375 O.3         1 LU2      -0.3326
      5 C3         20.7977   41.6243   35.9636 C.ar        1 LU2      -0.0086
      6 O3         19.2342   40.3839   39.7079 O.2         1 LU2      -0.4275
      7 C4         20.2040   41.1451   37.1481 C.ar        1 LU2       0.0935
      8 O4         21.8084   43.4130   39.6176 O.3         1 LU2      -0.2433
      9 C5         20.5492   41.7201   38.4005 C.ar        1 LU2       0.0767
     10 O5         22.6499   42.7258   45.4520 O.3         1 LU2      -0.3356
     11 C6         21.4792   42.7931   38.4292 C.ar        1 LU2       0.1290
     12 O6         23.2054   45.5089   45.3929 O.3         1 LU2      -0.3321
     13 C7         20.0438   41.3053   39.6353 C.2         1 LU2       0.0969
     14 C8         20.4630   41.8775   40.7993 C.2         1 LU2       0.0024
     15 C9         21.3352   42.9141   40.7914 C.2         1 LU2       0.1329
     16 C10        21.7765   43.5420   41.9610 C.ar        1 LU2       0.0117
     17 C11        21.9887   42.8297   43.1697 C.ar        1 LU2      -0.0240
     18 C12        22.4753   43.4693   44.3252 C.ar        1 LU2       0.1223
     19 C13        22.7374   44.8576   44.2989 C.ar        1 LU2       0.1233
     20 C14        22.5037   45.5869   43.1199 C.ar        1 LU2      -0.0339
     21 C15        22.0519   44.9334   41.9618 C.ar        1 LU2      -0.0626
     22 H1         22.7406   44.0310   37.2682 H           1 LU2       0.0401
     23 H2         23.2380   43.2861   35.0582 H           1 LU2       0.2494
     24 H3         18.4341   40.5503   37.1436 H           1 LU2       0.2503
     25 H4         20.5521   41.2044   35.0645 H           1 LU2       0.0403
     26 H5         23.1401   43.2888   46.0891 H           1 LU2       0.2443
     27 H6         24.1156   45.1667   45.5394 H           1 LU2       0.2472
     28 H7         20.0870   41.5484   41.6613 H           1 LU2       0.0375
     29 H8         21.8089   41.8202   43.2108 H           1 LU2       0.0550
     30 H9         22.6755   46.5953   43.0955 H           1 LU2       0.0530
     31 H10        21.9070   45.4954   41.1205 H           1 LU2       0.0553
@<TRIPOS>BOND
     1     1     3  ar
     2    11     1  ar
     3     3     2   1
     4     3     5  ar
     5     7     4   1
     6     7     5  ar
     7    13     6   2
     8     9     7  ar
     9     8    11   1
    10    15     8   1
    11    11     9  ar
    12    13     9   1
    13    18    10   1
    14    19    12   1
    15    14    13   1
    16    15    14   2
    17    16    15   1
    18    17    16  ar
    19    16    21  ar
    20    18    17  ar
    21    19    18  ar
    22    19    20  ar
    23    20    21  ar
    24     1    22   1
    25     2    23   1
    26     4    24   1
    27     5    25   1
    28    10    26   1
    29    12    27   1
    30    14    28   1
    31    17    29   1
    32    20    30   1
    33    21    31   1
@<TRIPOS>SUBSTRUCTURE
     1  LU2      1

