@<TRIPOS>MOLECULE
4dew_ligand_025
    31    33
SMALL
GAST_HUCK
****
This file was generated by PARSER (from files_GN.cpp)

@<TRIPOS>ATOM
      1 C1         21.6493   39.5596   42.6745 C.ar        1 LU2      -0.0033
      2 O1         21.2049   37.2563   43.0292 O.3         1 LU2      -0.3351
      3 C2         21.7376   38.2289   42.2576 C.ar        1 LU2       0.0775
      4 O2         23.4971   38.5496   39.0502 O.3         1 LU2      -0.3326
      5 C3         22.3725   37.9104   41.0434 C.ar        1 LU2      -0.0086
      6 O3         23.6356   41.2079   38.6980 O.2         1 LU2      -0.4275
      7 C4         22.8935   38.9184   40.2113 C.ar        1 LU2       0.0935
      8 O4         22.0961   41.8474   42.3173 O.3         1 LU2      -0.2433
      9 C5         22.7783   40.2711   40.6019 C.ar        1 LU2       0.0767
     10 O5         23.0323   46.1531   44.8992 O.3         1 LU2      -0.3356
     11 C6         22.1752   40.5651   41.8575 C.ar        1 LU2       0.1290
     12 O6         21.4580   47.9416   43.3815 O.3         1 LU2      -0.3321
     13 C7         23.1933   41.3595   39.8294 C.2         1 LU2       0.0969
     14 C8         23.0193   42.6282   40.2747 C.2         1 LU2       0.0024
     15 C9         22.4683   42.8447   41.4905 C.2         1 LU2       0.1329
     16 C10        22.2246   44.1009   41.9631 C.ar        1 LU2       0.0117
     17 C11        22.7200   44.4852   43.2273 C.ar        1 LU2      -0.0240
     18 C12        22.4929   45.7851   43.7093 C.ar        1 LU2       0.1223
     19 C13        21.7136   46.6837   42.9493 C.ar        1 LU2       0.1233
     20 C14        21.1585   46.2650   41.7257 C.ar        1 LU2      -0.0339
     21 C15        21.4271   44.9907   41.2194 C.ar        1 LU2      -0.0626
     22 H1         21.1982   39.7913   43.5618 H           1 LU2       0.0401
     23 H2         21.9728   36.7517   43.3672 H           1 LU2       0.2494
     24 H3         24.2989   38.0609   39.3287 H           1 LU2       0.2503
     25 H4         22.4350   36.9336   40.7519 H           1 LU2       0.0403
     26 H5         23.7739   45.5329   45.0589 H           1 LU2       0.2443
     27 H6         21.0000   47.8104   44.2272 H           1 LU2       0.2472
     28 H7         23.2959   43.3966   39.7050 H           1 LU2       0.0375
     29 H8         23.2750   43.8346   43.7883 H           1 LU2       0.0550
     30 H9         20.5596   46.8868   41.1852 H           1 LU2       0.0530
     31 H10        21.0152   44.7168   40.3224 H           1 LU2       0.0553
@<TRIPOS>BOND
     1     1     3  ar
     2    11     1  ar
     3     3     2   1
     4     3     5  ar
     5     7     4   1
     6     7     5  ar
     7    13     6   2
     8     9     7  ar
     9     8    11   1
    10    15     8   1
    11    11     9  ar
    12    13     9   1
    13    18    10   1
    14    19    12   1
    15    14    13   1
    16    15    14   2
    17    16    15   1
    18    17    16  ar
    19    16    21  ar
    20    18    17  ar
    21    19    18  ar
    22    19    20  ar
    23    20    21  ar
    24     1    22   1
    25     2    23   1
    26     4    24   1
    27     5    25   1
    28    10    26   1
    29    12    27   1
    30    14    28   1
    31    17    29   1
    32    20    30   1
    33    21    31   1
@<TRIPOS>SUBSTRUCTURE
     1  LU2      1

