@<TRIPOS>MOLECULE
4dew_ligand_004
    31    33
SMALL
GAST_HUCK
****
This file was generated by PARSER (from files_GN.cpp)

@<TRIPOS>ATOM
      1 C1         22.2683   43.3206   35.2349 C.ar        1 LU2      -0.0033
      2 O1         22.8178   43.3194   32.9109 O.3         1 LU2      -0.3351
      3 C2         22.1217   42.7952   33.9392 C.ar        1 LU2       0.0775
      4 O2         19.7210   40.0925   34.5156 O.3         1 LU2      -0.3326
      5 C3         21.2485   41.7100   33.7300 C.ar        1 LU2      -0.0086
      6 O3         19.3073   40.1874   37.1987 O.2         1 LU2      -0.4275
      7 C4         20.5352   41.1338   34.8041 C.ar        1 LU2       0.0935
      8 O4         21.7109   43.3271   37.5720 O.3         1 LU2      -0.2433
      9 C5         20.6965   41.6446   36.1158 C.ar        1 LU2       0.0767
     10 O5         23.2921   43.0938   42.9223 O.3         1 LU2      -0.3356
     11 C6         21.5566   42.7579   36.3147 C.ar        1 LU2       0.1290
     12 O6         21.9928   45.5343   43.3957 O.3         1 LU2      -0.3321
     13 C7         20.0698   41.1418   37.2625 C.2         1 LU2       0.0969
     14 C8         20.2901   41.6805   38.4992 C.2         1 LU2       0.0024
     15 C9         21.1036   42.7488   38.6363 C.2         1 LU2       0.1329
     16 C10        21.2795   43.3915   39.8534 C.ar        1 LU2       0.0117
     17 C11        22.1780   42.8881   40.8267 C.ar        1 LU2      -0.0240
     18 C12        22.4213   43.5965   42.0201 C.ar        1 LU2       0.1223
     19 C13        21.7649   44.8242   42.2573 C.ar        1 LU2       0.1233
     20 C14        20.8568   45.3229   41.3010 C.ar        1 LU2      -0.0339
     21 C15        20.6170   44.6192   40.1022 C.ar        1 LU2      -0.0626
     22 H1         22.8883   44.1146   35.3977 H           1 LU2       0.0401
     23 H2         23.5770   42.6967   32.7786 H           1 LU2       0.2494
     24 H3         20.2513   39.2877   34.7475 H           1 LU2       0.2503
     25 H4         21.1380   41.3321   32.7742 H           1 LU2       0.0403
     26 H5         23.9496   43.8297   43.0800 H           1 LU2       0.2443
     27 H6         21.4121   45.1301   44.0829 H           1 LU2       0.2472
     28 H7         19.8251   41.2982   39.2966 H           1 LU2       0.0375
     29 H8         22.6858   42.0099   40.6491 H           1 LU2       0.0550
     30 H9         20.3704   46.2039   41.4765 H           1 LU2       0.0530
     31 H10        19.9622   45.0067   39.4200 H           1 LU2       0.0553
@<TRIPOS>BOND
     1     1     3  ar
     2    11     1  ar
     3     3     2   1
     4     3     5  ar
     5     7     4   1
     6     7     5  ar
     7    13     6   2
     8     9     7  ar
     9     8    11   1
    10    15     8   1
    11    11     9  ar
    12    13     9   1
    13    18    10   1
    14    19    12   1
    15    14    13   1
    16    15    14   2
    17    16    15   1
    18    17    16  ar
    19    16    21  ar
    20    18    17  ar
    21    19    18  ar
    22    19    20  ar
    23    20    21  ar
    24     1    22   1
    25     2    23   1
    26     4    24   1
    27     5    25   1
    28    10    26   1
    29    12    27   1
    30    14    28   1
    31    17    29   1
    32    20    30   1
    33    21    31   1
@<TRIPOS>SUBSTRUCTURE
     1  LU2      1

