@<TRIPOS>MOLECULE
4dew_ligand_021
    31    33
SMALL
GAST_HUCK
****
This file was generated by PARSER (from files_GN.cpp)

@<TRIPOS>ATOM
      1 C1         21.9674   43.5694   38.4329 C.ar        1 LU2      -0.0033
      2 O1         22.2568   45.1434   36.6789 O.3         1 LU2      -0.3351
      3 C2         22.5181   43.9138   37.1936 C.ar        1 LU2       0.0775
      4 O2         24.5083   40.9697   36.3622 O.3         1 LU2      -0.3326
      5 C3         23.3428   43.0006   36.5145 C.ar        1 LU2      -0.0086
      6 O3         23.9656   39.2582   38.5260 O.2         1 LU2      -0.4275
      7 C4         23.6407   41.7422   37.0788 C.ar        1 LU2       0.0935
      8 O4         21.7273   42.0495   40.2345 O.3         1 LU2      -0.2433
      9 C5         23.0880   41.3800   38.3351 C.ar        1 LU2       0.0767
     10 O5         20.6308   42.7722   45.0569 O.3         1 LU2      -0.3356
     11 C6         22.2578   42.3180   38.9978 C.ar        1 LU2       0.1290
     12 O6         19.7872   40.2884   45.9441 O.3         1 LU2      -0.3321
     13 C7         23.3069   40.1674   39.0105 C.2         1 LU2       0.0969
     14 C8         22.7816   39.9454   40.2464 C.2         1 LU2       0.0024
     15 C9         22.0127   40.8757   40.8495 C.2         1 LU2       0.1329
     16 C10        21.4673   40.7086   42.1235 C.ar        1 LU2       0.0117
     17 C11        21.3233   41.8262   42.9827 C.ar        1 LU2      -0.0240
     18 C12        20.7612   41.6864   44.2612 C.ar        1 LU2       0.1223
     19 C13        20.3223   40.4260   44.7045 C.ar        1 LU2       0.1233
     20 C14        20.4648   39.3061   43.8654 C.ar        1 LU2      -0.0339
     21 C15        21.0260   39.4447   42.5899 C.ar        1 LU2      -0.0626
     22 H1         21.3669   44.2275   38.9349 H           1 LU2       0.0401
     23 H2         23.1165   45.6123   36.6837 H           1 LU2       0.2494
     24 H3         24.6555   40.1336   36.8468 H           1 LU2       0.2503
     25 H4         23.7390   43.2593   35.6057 H           1 LU2       0.0403
     26 H5         20.3502   43.4950   44.4523 H           1 LU2       0.2443
     27 H6         18.8380   40.0779   45.7899 H           1 LU2       0.2472
     28 H7         23.0112   39.1014   40.7230 H           1 LU2       0.0375
     29 H8         21.6423   42.7534   42.6920 H           1 LU2       0.0550
     30 H9         20.1470   38.3935   44.1778 H           1 LU2       0.0530
     31 H10        21.0894   38.6168   41.9944 H           1 LU2       0.0553
@<TRIPOS>BOND
     1     1     3  ar
     2    11     1  ar
     3     3     2   1
     4     3     5  ar
     5     7     4   1
     6     7     5  ar
     7    13     6   2
     8     9     7  ar
     9     8    11   1
    10    15     8   1
    11    11     9  ar
    12    13     9   1
    13    18    10   1
    14    19    12   1
    15    14    13   1
    16    15    14   2
    17    16    15   1
    18    17    16  ar
    19    16    21  ar
    20    18    17  ar
    21    19    18  ar
    22    19    20  ar
    23    20    21  ar
    24     1    22   1
    25     2    23   1
    26     4    24   1
    27     5    25   1
    28    10    26   1
    29    12    27   1
    30    14    28   1
    31    17    29   1
    32    20    30   1
    33    21    31   1
@<TRIPOS>SUBSTRUCTURE
     1  LU2      1

