@<TRIPOS>MOLECULE
4dew_ligand_012
    31    33
SMALL
GAST_HUCK
****
This file was generated by PARSER (from files_GN.cpp)

@<TRIPOS>ATOM
      1 C1         23.8754   42.7370   36.6316 C.ar        1 LU2      -0.0033
      2 O1         25.5290   43.2636   34.9832 O.3         1 LU2      -0.3351
      3 C2         24.4438   43.6303   35.7068 C.ar        1 LU2       0.0775
      4 O2         22.2368   46.5353   36.0682 O.3         1 LU2      -0.3326
      5 C3         23.8693   44.9004   35.5242 C.ar        1 LU2      -0.0086
      6 O3         20.3605   45.6787   37.8175 O.2         1 LU2      -0.4275
      7 C4         22.7263   45.2865   36.2615 C.ar        1 LU2       0.0935
      8 O4         22.2260   42.2136   38.2911 O.3         1 LU2      -0.2433
      9 C5         22.1541   44.3914   37.1953 C.ar        1 LU2       0.0767
     10 O5         21.7518   41.8364   43.9505 O.3         1 LU2      -0.3356
     11 C6         22.7475   43.1131   37.3806 C.ar        1 LU2       0.1290
     12 O6         20.4376   39.4178   43.6401 O.3         1 LU2      -0.3321
     13 C7         21.0515   44.6831   38.0089 C.2         1 LU2       0.0969
     14 C8         20.7295   43.8781   39.0593 C.2         1 LU2       0.0024
     15 C9         21.3505   42.6876   39.2157 C.2         1 LU2       0.1329
     16 C10        21.1129   41.8851   40.3218 C.ar        1 LU2       0.0117
     17 C11        21.5334   42.2862   41.6111 C.ar        1 LU2      -0.0240
     18 C12        21.3195   41.4511   42.7227 C.ar        1 LU2       0.1223
     19 C13        20.6592   40.2140   42.5627 C.ar        1 LU2       0.1233
     20 C14        20.2273   39.8146   41.2826 C.ar        1 LU2      -0.0339
     21 C15        20.4622   40.6398   40.1666 C.ar        1 LU2      -0.0626
     22 H1         24.2893   41.8141   36.7646 H           1 LU2       0.0401
     23 H2         26.2158   43.9428   35.1658 H           1 LU2       0.2494
     24 H3         22.9509   47.1422   36.3522 H           1 LU2       0.2503
     25 H4         24.2863   45.5512   34.8485 H           1 LU2       0.0403
     26 H5         22.7208   41.6462   43.9428 H           1 LU2       0.2443
     27 H6         20.5450   38.4957   43.3253 H           1 LU2       0.2472
     28 H7         20.0519   44.1787   39.7287 H           1 LU2       0.0375
     29 H8         22.0112   43.1784   41.7442 H           1 LU2       0.0550
     30 H9         19.7466   38.9236   41.1607 H           1 LU2       0.0530
     31 H10        20.1293   40.3391   39.2447 H           1 LU2       0.0553
@<TRIPOS>BOND
     1     1     3  ar
     2    11     1  ar
     3     3     2   1
     4     3     5  ar
     5     7     4   1
     6     7     5  ar
     7    13     6   2
     8     9     7  ar
     9     8    11   1
    10    15     8   1
    11    11     9  ar
    12    13     9   1
    13    18    10   1
    14    19    12   1
    15    14    13   1
    16    15    14   2
    17    16    15   1
    18    17    16  ar
    19    16    21  ar
    20    18    17  ar
    21    19    18  ar
    22    19    20  ar
    23    20    21  ar
    24     1    22   1
    25     2    23   1
    26     4    24   1
    27     5    25   1
    28    10    26   1
    29    12    27   1
    30    14    28   1
    31    17    29   1
    32    20    30   1
    33    21    31   1
@<TRIPOS>SUBSTRUCTURE
     1  LU2      1

