@<TRIPOS>MOLECULE
4dew_ligand_007
    31    33
SMALL
GAST_HUCK
****
This file was generated by PARSER (from files_GN.cpp)

@<TRIPOS>ATOM
      1 C1         21.1528   44.5563   41.1149 C.ar        1 LU2      -0.0033
      2 O1         20.9298   45.6662   43.2083 O.3         1 LU2      -0.3351
      3 C2         20.9545   44.5098   42.5052 C.ar        1 LU2       0.0775
      4 O2         20.6359   40.9028   43.0695 O.3         1 LU2      -0.3326
      5 C3         20.7702   43.2672   43.1412 C.ar        1 LU2      -0.0086
      6 O3         20.9356   39.8579   40.6102 O.2         1 LU2      -0.4275
      7 C4         20.7896   42.0729   42.3933 C.ar        1 LU2       0.0935
      8 O4         21.3896   43.4661   39.0008 O.3         1 LU2      -0.2433
      9 C5         20.9981   42.1110   40.9882 C.ar        1 LU2       0.0767
     10 O5         20.5491   41.1358   33.5915 O.3         1 LU2      -0.3356
     11 C6         21.1735   43.3708   40.3595 C.ar        1 LU2       0.1290
     12 O6         22.3353   43.1086   32.7688 O.3         1 LU2      -0.3321
     13 C7         21.0643   40.9886   40.1587 C.2         1 LU2       0.0969
     14 C8         21.2501   41.1182   38.8105 C.2         1 LU2       0.0024
     15 C9         21.4180   42.3330   38.2362 C.2         1 LU2       0.1329
     16 C10        21.6417   42.4983   36.8628 C.ar        1 LU2       0.0117
     17 C11        21.0128   41.6806   35.8860 C.ar        1 LU2      -0.0240
     18 C12        21.2194   41.8931   34.5076 C.ar        1 LU2       0.1223
     19 C13        22.1122   42.9025   34.0857 C.ar        1 LU2       0.1233
     20 C14        22.7491   43.7205   35.0379 C.ar        1 LU2      -0.0339
     21 C15        22.5008   43.5319   36.4067 C.ar        1 LU2      -0.0626
     22 H1         21.2842   45.4584   40.6506 H           1 LU2       0.0401
     23 H2         20.8086   45.4202   44.1512 H           1 LU2       0.2494
     24 H3         19.6661   40.7454   43.1031 H           1 LU2       0.2503
     25 H4         20.6194   43.2321   44.1505 H           1 LU2       0.0403
     26 H5         20.3253   40.2873   34.0493 H           1 LU2       0.2443
     27 H6         21.6580   43.7691   32.5028 H           1 LU2       0.2472
     28 H7         21.3064   40.2923   38.2505 H           1 LU2       0.0375
     29 H8         20.3463   40.9646   36.1761 H           1 LU2       0.0550
     30 H9         23.3757   44.4606   34.7388 H           1 LU2       0.0530
     31 H10        22.9915   44.1320   37.0784 H           1 LU2       0.0553
@<TRIPOS>BOND
     1     1     3  ar
     2    11     1  ar
     3     3     2   1
     4     3     5  ar
     5     7     4   1
     6     7     5  ar
     7    13     6   2
     8     9     7  ar
     9     8    11   1
    10    15     8   1
    11    11     9  ar
    12    13     9   1
    13    18    10   1
    14    19    12   1
    15    14    13   1
    16    15    14   2
    17    16    15   1
    18    17    16  ar
    19    16    21  ar
    20    18    17  ar
    21    19    18  ar
    22    19    20  ar
    23    20    21  ar
    24     1    22   1
    25     2    23   1
    26     4    24   1
    27     5    25   1
    28    10    26   1
    29    12    27   1
    30    14    28   1
    31    17    29   1
    32    20    30   1
    33    21    31   1
@<TRIPOS>SUBSTRUCTURE
     1  LU2      1

