@<TRIPOS>MOLECULE
4dew_ligand_020
    31    33
SMALL
GAST_HUCK
****
This file was generated by PARSER (from files_GN.cpp)

@<TRIPOS>ATOM
      1 C1         19.9302   42.3454   47.9262 C.ar        1 LU2      -0.0033
      2 O1         19.0837   42.2229   50.1823 O.3         1 LU2      -0.3351
      3 C2         19.2538   41.6675   48.9531 C.ar        1 LU2       0.0775
      4 O2         18.3584   38.5305   47.3111 O.3         1 LU2      -0.3326
      5 C3         18.7408   40.3798   48.7125 C.ar        1 LU2      -0.0086
      6 O3         19.3987   38.8359   44.7955 O.2         1 LU2      -0.4275
      7 C4         18.9041   39.7677   47.4519 C.ar        1 LU2       0.0935
      8 O4         20.7407   42.4581   45.6752 O.3         1 LU2      -0.2433
      9 C5         19.5787   40.4557   46.4102 C.ar        1 LU2       0.0767
     10 O5         21.7578   46.0500   42.1136 O.3         1 LU2      -0.3356
     11 C6         20.0902   41.7534   46.6633 C.ar        1 LU2       0.1290
     12 O6         23.7951   44.8758   40.6767 O.3         1 LU2      -0.3321
     13 C7         19.8043   39.9390   45.1260 C.2         1 LU2       0.0969
     14 C8         20.4896   40.6515   44.1883 C.2         1 LU2       0.0024
     15 C9         20.9675   41.8852   44.4643 C.2         1 LU2       0.1329
     16 C10        21.6954   42.6255   43.5342 C.ar        1 LU2       0.0117
     17 C11        21.3793   43.9899   43.3065 C.ar        1 LU2      -0.0240
     18 C12        22.0870   44.7482   42.3473 C.ar        1 LU2       0.1223
     19 C13        23.1303   44.1529   41.6099 C.ar        1 LU2       0.1233
     20 C14        23.4835   42.8132   41.8580 C.ar        1 LU2      -0.0339
     21 C15        22.7700   42.0609   42.8028 C.ar        1 LU2      -0.0626
     22 H1         20.3084   43.2765   48.1032 H           1 LU2       0.0401
     23 H2         18.9265   43.1812   50.0276 H           1 LU2       0.2494
     24 H3         18.7965   38.1272   46.5369 H           1 LU2       0.2503
     25 H4         18.2435   39.8867   49.4594 H           1 LU2       0.0403
     26 H5         21.7158   46.4717   43.0056 H           1 LU2       0.2443
     27 H6         23.5679   44.4471   39.8231 H           1 LU2       0.2472
     28 H7         20.6225   40.2646   43.2753 H           1 LU2       0.0375
     29 H8         20.5993   44.4391   43.7993 H           1 LU2       0.0550
     30 H9         24.2561   42.3830   41.3494 H           1 LU2       0.0530
     31 H10        23.0380   41.0857   42.9581 H           1 LU2       0.0553
@<TRIPOS>BOND
     1     1     3  ar
     2    11     1  ar
     3     3     2   1
     4     3     5  ar
     5     7     4   1
     6     7     5  ar
     7    13     6   2
     8     9     7  ar
     9     8    11   1
    10    15     8   1
    11    11     9  ar
    12    13     9   1
    13    18    10   1
    14    19    12   1
    15    14    13   1
    16    15    14   2
    17    16    15   1
    18    17    16  ar
    19    16    21  ar
    20    18    17  ar
    21    19    18  ar
    22    19    20  ar
    23    20    21  ar
    24     1    22   1
    25     2    23   1
    26     4    24   1
    27     5    25   1
    28    10    26   1
    29    12    27   1
    30    14    28   1
    31    17    29   1
    32    20    30   1
    33    21    31   1
@<TRIPOS>SUBSTRUCTURE
     1  LU2      1

