@<TRIPOS>MOLECULE
4dew_ligand_001
    31    33
SMALL
GAST_HUCK
****
This file was generated by PARSER (from files_GN.cpp)

@<TRIPOS>ATOM
      1 C1         18.9439   40.2098   37.6431 C.ar        1 LU2      -0.0033
      2 O1         17.5796   38.6106   36.5170 O.3         1 LU2      -0.3351
      3 C2         18.5650   39.5430   36.4667 C.ar        1 LU2       0.0775
      4 O2         20.7835   41.1197   34.0078 O.3         1 LU2      -0.3326
      5 C3         19.2037   39.8603   35.2521 C.ar        1 LU2      -0.0086
      6 O3         22.1206   42.9558   35.4529 O.2         1 LU2      -0.4275
      7 C4         20.2073   40.8513   35.2063 C.ar        1 LU2       0.0935
      8 O4         20.2605   41.8438   38.7924 O.3         1 LU2      -0.2433
      9 C5         20.5714   41.5536   36.3857 C.ar        1 LU2       0.0767
     10 O5         23.3195   43.1084   43.0266 O.3         1 LU2      -0.3356
     11 C6         19.9368   41.2072   37.6101 C.ar        1 LU2       0.1290
     12 O6         22.0282   45.5435   43.5681 O.3         1 LU2      -0.3321
     13 C7         21.5074   42.5978   36.4488 C.2         1 LU2       0.0969
     14 C8         21.7390   43.2673   37.6152 C.2         1 LU2       0.0024
     15 C9         21.1095   42.8975   38.7489 C.2         1 LU2       0.1329
     16 C10        21.3372   43.5445   39.9510 C.ar        1 LU2       0.0117
     17 C11        22.2012   42.9828   40.9201 C.ar        1 LU2      -0.0240
     18 C12        22.4544   43.6525   42.1357 C.ar        1 LU2       0.1223
     19 C13        21.8122   44.8795   42.4058 C.ar        1 LU2       0.1233
     20 C14        20.9318   45.4302   41.4578 C.ar        1 LU2      -0.0339
     21 C15        20.6988   44.7742   40.2348 C.ar        1 LU2      -0.0626
     22 H1         18.4848   39.9787   38.5289 H           1 LU2       0.0401
     23 H2         17.0270   38.7654   35.7216 H           1 LU2       0.2494
     24 H3         20.1581   41.7273   33.5596 H           1 LU2       0.2503
     25 H4         18.9360   39.3705   34.3949 H           1 LU2       0.0403
     26 H5         23.9166   43.8416   43.2877 H           1 LU2       0.2443
     27 H6         21.4066   45.1480   44.2144 H           1 LU2       0.2472
     28 H7         22.3743   44.0349   37.6178 H           1 LU2       0.0375
     29 H8         22.6642   42.0866   40.7421 H           1 LU2       0.0550
     30 H9         20.4610   46.3117   41.6591 H           1 LU2       0.0530
     31 H10        20.0529   45.1950   39.5609 H           1 LU2       0.0553
@<TRIPOS>BOND
     1     1     3  ar
     2    11     1  ar
     3     3     2   1
     4     3     5  ar
     5     7     4   1
     6     7     5  ar
     7    13     6   2
     8     9     7  ar
     9     8    11   1
    10    15     8   1
    11    11     9  ar
    12    13     9   1
    13    18    10   1
    14    19    12   1
    15    14    13   1
    16    15    14   2
    17    16    15   1
    18    17    16  ar
    19    16    21  ar
    20    18    17  ar
    21    19    18  ar
    22    19    20  ar
    23    20    21  ar
    24     1    22   1
    25     2    23   1
    26     4    24   1
    27     5    25   1
    28    10    26   1
    29    12    27   1
    30    14    28   1
    31    17    29   1
    32    20    30   1
    33    21    31   1
@<TRIPOS>SUBSTRUCTURE
     1  LU2      1

