@<TRIPOS>MOLECULE
4dew_ligand_024
    31    33
SMALL
GAST_HUCK
****
This file was generated by PARSER (from files_GN.cpp)

@<TRIPOS>ATOM
      1 C1         22.7163   39.2532   40.1291 C.ar        1 LU2      -0.0033
      2 O1         23.6320   37.4021   38.9313 O.3         1 LU2      -0.3351
      3 C2         22.9556   37.8825   40.0170 C.ar        1 LU2       0.0775
      4 O2         21.2789   36.6040   43.0311 O.3         1 LU2      -0.3326
      5 C3         22.4496   37.0000   40.9907 C.ar        1 LU2      -0.0086
      6 O3         20.4243   38.8156   44.2783 O.2         1 LU2      -0.4275
      7 C4         21.7725   37.4797   42.1535 C.ar        1 LU2       0.0935
      8 O4         21.7757   41.1123   41.2670 O.3         1 LU2      -0.2433
      9 C5         21.5341   38.8657   42.2890 C.ar        1 LU2       0.0767
     10 O5         22.6651   45.7087   44.3968 O.3         1 LU2      -0.3356
     11 C6         22.0105   39.7529   41.2487 C.ar        1 LU2       0.1290
     12 O6         20.9849   47.0912   42.6027 O.3         1 LU2      -0.3321
     13 C7         20.8809   39.4782   43.3449 C.2         1 LU2       0.0969
     14 C8         20.7738   40.8215   43.4262 C.2         1 LU2       0.0024
     15 C9         21.2474   41.5793   42.4237 C.2         1 LU2       0.1329
     16 C10        21.1571   42.9524   42.4747 C.ar        1 LU2       0.0117
     17 C11        21.9264   43.6486   43.4238 C.ar        1 LU2      -0.0240
     18 C12        21.8812   45.0463   43.4944 C.ar        1 LU2       0.1223
     19 C13        21.0299   45.7437   42.5912 C.ar        1 LU2       0.1233
     20 C14        20.2764   45.0466   41.6291 C.ar        1 LU2      -0.0339
     21 C15        20.3638   43.6592   41.5669 C.ar        1 LU2      -0.0626
     22 H1         23.0666   39.9014   39.3878 H           1 LU2       0.0401
     23 H2         24.5494   37.3621   39.2732 H           1 LU2       0.2494
     24 H3         22.0719   36.2694   43.5053 H           1 LU2       0.2503
     25 H4         22.6084   36.0030   40.9340 H           1 LU2       0.0403
     26 H5         23.5350   45.7234   43.9538 H           1 LU2       0.2443
     27 H6         21.2978   47.3712   43.4869 H           1 LU2       0.2472
     28 H7         20.3572   41.2196   44.2414 H           1 LU2       0.0375
     29 H8         22.5573   43.1460   44.0963 H           1 LU2       0.0550
     30 H9         19.6850   45.5377   40.9614 H           1 LU2       0.0530
     31 H10        19.7857   43.1567   40.8821 H           1 LU2       0.0553
@<TRIPOS>BOND
     1     1     3  ar
     2    11     1  ar
     3     3     2   1
     4     3     5  ar
     5     7     4   1
     6     7     5  ar
     7    13     6   2
     8     9     7  ar
     9     8    11   1
    10    15     8   1
    11    11     9  ar
    12    13     9   1
    13    18    10   1
    14    19    12   1
    15    14    13   1
    16    15    14   2
    17    16    15   1
    18    17    16  ar
    19    16    21  ar
    20    18    17  ar
    21    19    18  ar
    22    19    20  ar
    23    20    21  ar
    24     1    22   1
    25     2    23   1
    26     4    24   1
    27     5    25   1
    28    10    26   1
    29    12    27   1
    30    14    28   1
    31    17    29   1
    32    20    30   1
    33    21    31   1
@<TRIPOS>SUBSTRUCTURE
     1  LU2      1

