@<TRIPOS>MOLECULE
4dew_ligand_017
    31    33
SMALL
GAST_HUCK
****
This file was generated by PARSER (from files_GN.cpp)

@<TRIPOS>ATOM
      1 C1         22.5739   41.9008   39.6851 C.ar        1 LU2      -0.0033
      2 O1         22.6605   40.7628   37.5710 O.3         1 LU2      -0.3351
      3 C2         22.1765   41.7672   38.3420 C.ar        1 LU2       0.0775
      4 O2         19.8579   44.5940   37.9934 O.3         1 LU2      -0.3326
      5 C3         21.2539   42.6756   37.7947 C.ar        1 LU2      -0.0086
      6 O3         19.9839   45.8018   40.3758 O.2         1 LU2      -0.4275
      7 C4         20.7438   43.7369   38.5708 C.ar        1 LU2       0.0935
      8 O4         22.4584   43.0396   41.7973 O.3         1 LU2      -0.2433
      9 C5         21.1603   43.8947   39.9182 C.ar        1 LU2       0.0767
     10 O5         23.3906   41.9488   46.7057 O.3         1 LU2      -0.3356
     11 C6         22.0650   42.9520   40.4730 C.ar        1 LU2       0.1290
     12 O6         24.2811   44.3640   47.6915 O.3         1 LU2      -0.3321
     13 C7         20.7448   44.9266   40.7667 C.2         1 LU2       0.0969
     14 C8         21.2031   45.0192   42.0497 C.2         1 LU2       0.0024
     15 C9         22.0570   44.0978   42.5547 C.2         1 LU2       0.1329
     16 C10        22.5723   44.1784   43.8533 C.ar        1 LU2       0.0117
     17 C11        22.7054   43.0136   44.6481 C.ar        1 LU2      -0.0240
     18 C12        23.2619   43.0719   45.9466 C.ar        1 LU2       0.1223
     19 C13        23.7102   44.3002   46.4645 C.ar        1 LU2       0.1233
     20 C14        23.5877   45.4630   45.6862 C.ar        1 LU2      -0.0339
     21 C15        23.0178   45.4056   44.4032 C.ar        1 LU2      -0.0626
     22 H1         23.2314   41.2310   40.0901 H           1 LU2       0.0401
     23 H2         23.6240   40.9468   37.4815 H           1 LU2       0.2494
     24 H3         19.4006   44.0901   37.2836 H           1 LU2       0.2503
     25 H4         20.9624   42.5655   36.8182 H           1 LU2       0.0403
     26 H5         23.8803   41.2993   46.1386 H           1 LU2       0.2443
     27 H6         25.1686   44.7573   47.5143 H           1 LU2       0.2472
     28 H7         20.8804   45.7705   42.6251 H           1 LU2       0.0375
     29 H8         22.3869   42.1074   44.2931 H           1 LU2       0.0550
     30 H9         23.9284   46.3496   46.0580 H           1 LU2       0.0530
     31 H10        22.9711   46.2673   43.8562 H           1 LU2       0.0553
@<TRIPOS>BOND
     1     1     3  ar
     2    11     1  ar
     3     3     2   1
     4     3     5  ar
     5     7     4   1
     6     7     5  ar
     7    13     6   2
     8     9     7  ar
     9     8    11   1
    10    15     8   1
    11    11     9  ar
    12    13     9   1
    13    18    10   1
    14    19    12   1
    15    14    13   1
    16    15    14   2
    17    16    15   1
    18    17    16  ar
    19    16    21  ar
    20    18    17  ar
    21    19    18  ar
    22    19    20  ar
    23    20    21  ar
    24     1    22   1
    25     2    23   1
    26     4    24   1
    27     5    25   1
    28    10    26   1
    29    12    27   1
    30    14    28   1
    31    17    29   1
    32    20    30   1
    33    21    31   1
@<TRIPOS>SUBSTRUCTURE
     1  LU2      1

