@<TRIPOS>MOLECULE
4dew_ligand_019
    31    33
SMALL
GAST_HUCK
****
This file was generated by PARSER (from files_GN.cpp)

@<TRIPOS>ATOM
      1 C1         16.3542   42.4993   31.4854 C.ar        1 LU2      -0.0033
      2 O1         14.4981   43.5086   30.3843 O.3         1 LU2      -0.3351
      3 C2         15.8228   43.2401   30.4153 C.ar        1 LU2       0.0775
      4 O2         18.8170   43.9512   28.4457 O.3         1 LU2      -0.3326
      5 C3         16.6675   43.7081   29.3958 C.ar        1 LU2      -0.0086
      6 O3         20.7719   42.6510   29.7934 O.2         1 LU2      -0.4275
      7 C4         18.0505   43.4318   29.4385 C.ar        1 LU2       0.0935
      8 O4         18.2184   41.5120   32.6196 O.3         1 LU2      -0.2433
      9 C5         18.5973   42.6631   30.4967 C.ar        1 LU2       0.0767
     10 O5         20.0349   40.1052   37.2900 O.3         1 LU2      -0.3356
     11 C6         17.7283   42.2120   31.5308 C.ar        1 LU2       0.1290
     12 O6         20.8591   37.5348   36.6911 O.3         1 LU2      -0.3321
     13 C7         19.9395   42.2900   30.6176 C.2         1 LU2       0.0969
     14 C8         20.3608   41.4647   31.6217 C.2         1 LU2       0.0024
     15 C9         19.5042   41.0844   32.5960 C.2         1 LU2       0.1329
     16 C10        19.8830   40.2129   33.6089 C.ar        1 LU2       0.0117
     17 C11        19.7719   40.5944   34.9644 C.ar        1 LU2      -0.0240
     18 C12        20.1220   39.7004   36.0002 C.ar        1 LU2       0.1223
     19 C13        20.5447   38.3947   35.6909 C.ar        1 LU2       0.1233
     20 C14        20.6487   38.0004   34.3426 C.ar        1 LU2      -0.0339
     21 C15        20.3308   38.9023   33.3086 C.ar        1 LU2      -0.0626
     22 H1         15.7369   42.1725   32.2308 H           1 LU2       0.0401
     23 H2         14.3437   44.0309   31.2034 H           1 LU2       0.2494
     24 H3         19.2802   44.7022   28.8810 H           1 LU2       0.2503
     25 H4         16.2812   44.2688   28.6302 H           1 LU2       0.0403
     26 H5         20.9633   40.3015   37.5493 H           1 LU2       0.2443
     27 H6         20.6095   36.6320   36.3865 H           1 LU2       0.2472
     28 H7         21.3066   41.1539   31.6425 H           1 LU2       0.0375
     29 H8         19.4408   41.5335   35.2079 H           1 LU2       0.0550
     30 H9         20.9563   37.0510   34.1083 H           1 LU2       0.0530
     31 H10        20.3976   38.5889   32.3390 H           1 LU2       0.0553
@<TRIPOS>BOND
     1     1     3  ar
     2    11     1  ar
     3     3     2   1
     4     3     5  ar
     5     7     4   1
     6     7     5  ar
     7    13     6   2
     8     9     7  ar
     9     8    11   1
    10    15     8   1
    11    11     9  ar
    12    13     9   1
    13    18    10   1
    14    19    12   1
    15    14    13   1
    16    15    14   2
    17    16    15   1
    18    17    16  ar
    19    16    21  ar
    20    18    17  ar
    21    19    18  ar
    22    19    20  ar
    23    20    21  ar
    24     1    22   1
    25     2    23   1
    26     4    24   1
    27     5    25   1
    28    10    26   1
    29    12    27   1
    30    14    28   1
    31    17    29   1
    32    20    30   1
    33    21    31   1
@<TRIPOS>SUBSTRUCTURE
     1  LU2      1

