@<TRIPOS>MOLECULE
4dew_ligand_002
    31    33
SMALL
GAST_HUCK
****
This file was generated by PARSER (from files_GN.cpp)

@<TRIPOS>ATOM
      1 C1         13.3787   38.7857   31.4367 C.ar        1 LU2      -0.0033
      2 O1         12.9281   36.7295   32.5423 O.3         1 LU2      -0.3351
      3 C2         13.6591   37.8700   32.4650 C.ar        1 LU2       0.0775
      4 O2         16.3183   39.6130   34.2828 O.3         1 LU2      -0.3326
      5 C3         14.6611   38.1668   33.4071 C.ar        1 LU2      -0.0086
      6 O3         16.5990   41.9343   32.9125 O.2         1 LU2      -0.4275
      7 C4         15.3752   39.3798   33.3329 C.ar        1 LU2       0.0935
      8 O4         13.6957   40.9066   30.3902 O.3         1 LU2      -0.2433
      9 C5         15.0798   40.3242   32.3153 C.ar        1 LU2       0.0767
     10 O5         11.1396   44.9174   28.1379 O.3         1 LU2      -0.3356
     11 C6         14.0643   40.0115   31.3741 C.ar        1 LU2       0.1290
     12 O6         12.8904   45.3648   26.0264 O.3         1 LU2      -0.3321
     13 C7         15.7158   41.5618   32.1501 C.2         1 LU2       0.0969
     14 C8         15.3762   42.3965   31.1195 C.2         1 LU2       0.0024
     15 C9         14.3885   42.0634   30.2624 C.2         1 LU2       0.1329
     16 C10        14.0152   42.8887   29.2089 C.ar        1 LU2       0.0117
     17 C11        12.7316   43.4851   29.1781 C.ar        1 LU2      -0.0240
     18 C12        12.3588   44.3291   28.1128 C.ar        1 LU2       0.1223
     19 C13        13.2566   44.5597   27.0507 C.ar        1 LU2       0.1233
     20 C14        14.5258   43.9521   27.0620 C.ar        1 LU2      -0.0339
     21 C15        14.9109   43.1323   28.1386 C.ar        1 LU2      -0.0626
     22 H1         12.6581   38.5698   30.7456 H           1 LU2       0.0401
     23 H2         13.0120   36.4019   33.4635 H           1 LU2       0.2494
     24 H3         16.0255   40.4230   34.7486 H           1 LU2       0.2503
     25 H4         14.8664   37.5006   34.1532 H           1 LU2       0.0403
     26 H5         10.5779   44.3550   27.5658 H           1 LU2       0.2443
     27 H6         12.4970   44.7665   25.3586 H           1 LU2       0.2472
     28 H7         15.8539   43.2623   31.0176 H           1 LU2       0.0375
     29 H8         12.0760   43.3281   29.9452 H           1 LU2       0.0550
     30 H9         15.1739   44.1193   26.2923 H           1 LU2       0.0530
     31 H10        15.8412   42.7105   28.1230 H           1 LU2       0.0553
@<TRIPOS>BOND
     1     1     3  ar
     2    11     1  ar
     3     3     2   1
     4     3     5  ar
     5     7     4   1
     6     7     5  ar
     7    13     6   2
     8     9     7  ar
     9     8    11   1
    10    15     8   1
    11    11     9  ar
    12    13     9   1
    13    18    10   1
    14    19    12   1
    15    14    13   1
    16    15    14   2
    17    16    15   1
    18    17    16  ar
    19    16    21  ar
    20    18    17  ar
    21    19    18  ar
    22    19    20  ar
    23    20    21  ar
    24     1    22   1
    25     2    23   1
    26     4    24   1
    27     5    25   1
    28    10    26   1
    29    12    27   1
    30    14    28   1
    31    17    29   1
    32    20    30   1
    33    21    31   1
@<TRIPOS>SUBSTRUCTURE
     1  LU2      1

