@<TRIPOS>MOLECULE
4dew_ligand_015
    31    33
SMALL
GAST_HUCK
****
This file was generated by PARSER (from files_GN.cpp)

@<TRIPOS>ATOM
      1 C1         20.7771   44.5983   41.0782 C.ar        1 LU2      -0.0033
      2 O1         21.4463   46.5921   42.1963 O.3         1 LU2      -0.3351
      3 C2         21.2555   45.2499   42.2265 C.ar        1 LU2       0.0775
      4 O2         21.5486   42.4814   44.5973 O.3         1 LU2      -0.3326
      5 C3         21.5336   44.5078   43.3861 C.ar        1 LU2      -0.0086
      6 O3         20.8102   40.3202   43.1105 O.2         1 LU2      -0.4275
      7 C4         21.3003   43.1196   43.4247 C.ar        1 LU2       0.0935
      8 O4         20.0990   42.6008   39.9478 O.3         1 LU2      -0.2433
      9 C5         20.8144   42.4479   42.2682 C.ar        1 LU2       0.0767
     10 O5         17.3504   37.9837   37.3200 O.3         1 LU2      -0.3356
     11 C6         20.5579   43.2079   41.0961 C.ar        1 LU2       0.1290
     12 O6         18.0438   39.3185   34.9783 O.3         1 LU2      -0.3321
     13 C7         20.5892   41.0703   42.1704 C.2         1 LU2       0.0969
     14 C8         20.1238   40.5080   41.0162 C.2         1 LU2       0.0024
     15 C9         19.8796   41.2551   39.9173 C.2         1 LU2       0.1329
     16 C10        19.4261   40.7292   38.6950 C.ar        1 LU2       0.0117
     17 C11        18.5815   39.5860   38.6139 C.ar        1 LU2      -0.0240
     18 C12        18.1316   39.0899   37.3706 C.ar        1 LU2       0.1223
     19 C13        18.4891   39.7537   36.1833 C.ar        1 LU2       0.1233
     20 C14        19.3139   40.8870   36.2394 C.ar        1 LU2      -0.0339
     21 C15        19.7779   41.3662   37.4759 C.ar        1 LU2      -0.0626
     22 H1         20.5819   45.1358   40.2304 H           1 LU2       0.0401
     23 H2         21.3316   46.9170   43.1165 H           1 LU2       0.2494
     24 H3         20.7335   41.9702   44.7792 H           1 LU2       0.2503
     25 H4         21.9105   44.9883   44.2069 H           1 LU2       0.0403
     26 H5         17.9548   37.2421   37.5404 H           1 LU2       0.2443
     27 H6         17.1184   39.6392   34.9273 H           1 LU2       0.2472
     28 H7         20.0124   39.5194   40.9846 H           1 LU2       0.0375
     29 H8         18.2585   39.1128   39.4619 H           1 LU2       0.0550
     30 H9         19.5868   41.3670   35.3776 H           1 LU2       0.0530
     31 H10        20.3916   42.1874   37.4725 H           1 LU2       0.0553
@<TRIPOS>BOND
     1     1     3  ar
     2    11     1  ar
     3     3     2   1
     4     3     5  ar
     5     7     4   1
     6     7     5  ar
     7    13     6   2
     8     9     7  ar
     9     8    11   1
    10    15     8   1
    11    11     9  ar
    12    13     9   1
    13    18    10   1
    14    19    12   1
    15    14    13   1
    16    15    14   2
    17    16    15   1
    18    17    16  ar
    19    16    21  ar
    20    18    17  ar
    21    19    18  ar
    22    19    20  ar
    23    20    21  ar
    24     1    22   1
    25     2    23   1
    26     4    24   1
    27     5    25   1
    28    10    26   1
    29    12    27   1
    30    14    28   1
    31    17    29   1
    32    20    30   1
    33    21    31   1
@<TRIPOS>SUBSTRUCTURE
     1  LU2      1

