@<TRIPOS>MOLECULE
4dew_ligand_003
    31    33
SMALL
GAST_HUCK
****
This file was generated by PARSER (from files_GN.cpp)

@<TRIPOS>ATOM
      1 C1         22.3935   43.1908   36.3213 C.ar        1 LU2      -0.0033
      2 O1         22.1147   43.0811   33.9566 O.3         1 LU2      -0.3351
      3 C2         22.8143   43.5313   35.0256 C.ar        1 LU2       0.0775
      4 O2         25.7827   45.5543   35.6962 O.3         1 LU2      -0.3326
      5 C3         23.9647   44.3227   34.8507 C.ar        1 LU2      -0.0086
      6 O3         25.8976   45.5774   38.4460 O.2         1 LU2      -0.4275
      7 C4         24.6823   44.8020   35.9649 C.ar        1 LU2       0.0935
      8 O4         22.6846   43.2380   38.6922 O.3         1 LU2      -0.2433
      9 C5         24.2582   44.4719   37.2816 C.ar        1 LU2       0.0767
     10 O5         22.4153   40.4003   43.1127 O.3         1 LU2      -0.3356
     11 C6         23.1128   43.6428   37.4411 C.ar        1 LU2       0.1290
     12 O6         21.1473   42.3624   44.7320 O.3         1 LU2      -0.3321
     13 C7         24.8868   44.8871   38.4649 C.2         1 LU2       0.0969
     14 C8         24.3905   44.5422   39.6866 C.2         1 LU2       0.0024
     15 C9         23.3036   43.7473   39.7844 C.2         1 LU2       0.1329
     16 C10        22.7823   43.3972   41.0188 C.ar        1 LU2       0.0117
     17 C11        22.8343   42.0553   41.4602 C.ar        1 LU2      -0.0240
     18 C12        22.3110   41.6940   42.7180 C.ar        1 LU2       0.1223
     19 C13        21.6949   42.6738   43.5304 C.ar        1 LU2       0.1233
     20 C14        21.6373   44.0091   43.0906 C.ar        1 LU2      -0.0339
     21 C15        22.1890   44.3737   41.8517 C.ar        1 LU2      -0.0626
     22 H1         21.5603   42.6109   36.4474 H           1 LU2       0.0401
     23 H2         22.0311   43.8507   33.3551 H           1 LU2       0.2494
     24 H3         25.7977   46.2738   36.3582 H           1 LU2       0.2503
     25 H4         24.2806   44.5494   33.9060 H           1 LU2       0.0403
     26 H5         22.4520   40.4094   44.0911 H           1 LU2       0.2443
     27 H6         20.6581   41.5236   44.5947 H           1 LU2       0.2472
     28 H7         24.8450   44.8607   40.5114 H           1 LU2       0.0375
     29 H8         23.2781   41.3389   40.8790 H           1 LU2       0.0550
     30 H9         21.1854   44.7203   43.6702 H           1 LU2       0.0530
     31 H10        22.1335   45.3525   41.5521 H           1 LU2       0.0553
@<TRIPOS>BOND
     1     1     3  ar
     2    11     1  ar
     3     3     2   1
     4     3     5  ar
     5     7     4   1
     6     7     5  ar
     7    13     6   2
     8     9     7  ar
     9     8    11   1
    10    15     8   1
    11    11     9  ar
    12    13     9   1
    13    18    10   1
    14    19    12   1
    15    14    13   1
    16    15    14   2
    17    16    15   1
    18    17    16  ar
    19    16    21  ar
    20    18    17  ar
    21    19    18  ar
    22    19    20  ar
    23    20    21  ar
    24     1    22   1
    25     2    23   1
    26     4    24   1
    27     5    25   1
    28    10    26   1
    29    12    27   1
    30    14    28   1
    31    17    29   1
    32    20    30   1
    33    21    31   1
@<TRIPOS>SUBSTRUCTURE
     1  LU2      1

