@<TRIPOS>MOLECULE
4djr_ligand_072
    76    79
SMALL
GAST_HUCK
****
This file was generated by PARSER (from files_GN.cpp)

@<TRIPOS>ATOM
      1 O28        14.0661   41.6424   20.3106 O.2         1 MOL      -0.3971
      2 C27        14.7431   41.0389   19.4972 C.2         1 MOL       0.1764
      3 N29        14.4741   39.8198   19.1025 N.am        1 MOL      -0.2812
      4 C24        15.4152   39.2837   18.1949 C.3         1 MOL       0.0716
      5 C25        16.3403   40.4926   17.8943 C.3         1 MOL      -0.0105
      6 C26        15.9543   41.5589   18.9388 C.3         1 MOL       0.0394
      7 C22        16.1422   38.0561   18.7987 C.3         1 MOL       0.1003
      8 O23        17.1362   37.6163   17.8655 O.3         1 MOL      -0.2616
      9 C21        17.9913   36.5674   18.0197 C.2         1 MOL       0.3200
     10 O22        17.9840   35.7986   19.1442 O.2         1 MOL      -0.3775
     11 N20        18.7876   36.2991   16.9568 N.am        1 MOL      -0.2550
     12 C19        19.8113   35.3141   16.8167 C.3         1 MOL       0.0807
     13 C32        21.1916   35.9250   17.2254 C.3         1 MOL       0.0064
     14 C38        21.4872   37.2608   16.6295 C.ar        1 MOL      -0.0408
     15 C37        21.5364   37.4333   15.2229 C.ar        1 MOL      -0.0603
     16 C36        21.8235   38.6845   14.6547 C.ar        1 MOL      -0.0686
     17 C35        22.1107   39.7854   15.4844 C.ar        1 MOL      -0.0687
     18 C34        22.0781   39.6313   16.8838 C.ar        1 MOL      -0.0686
     19 C33        21.7598   38.3863   17.4493 C.ar        1 MOL      -0.0603
     20 C17        19.5375   33.9407   17.5101 C.3         1 MOL       0.0967
     21 O18        20.6462   33.0690   17.2975 O.3         1 MOL      -0.3877
     22 C16        18.2149   33.1812   17.1330 C.3         1 MOL       0.0579
     23 N11        17.4795   33.5643   15.9467 N.am        1 MOL      -0.2317
     24 C12        16.3526   34.4881   15.9478 C.3         1 MOL       0.0322
     25 C13        15.4231   34.5945   17.2115 C.3         1 MOL      -0.0270
     26 C14        14.4108   35.7649   17.0414 C.3         1 MOL      -0.0610
     27 C15        14.6967   33.2728   17.6407 C.3         1 MOL      -0.0518
     28 C18        14.7749   32.0703   16.6667 C.3         1 MOL      -0.0650
     29 S8         17.9858   33.0071   14.4215 S.o2        1 MOL       0.0679
     30 O10        17.8893   34.2147   13.3872 O.2         1 MOL      -0.1506
     31 O9         16.9433   31.9277   13.8892 O.2         1 MOL      -0.1506
     32 C5         19.5897   32.3399   14.2557 C.ar        1 MOL       0.1007
     33 C6         19.7762   30.9415   14.0558 C.ar        1 MOL      -0.0433
     34 C7         21.0699   30.4034   13.9142 C.ar        1 MOL      -0.0517
     35 C4         20.7233   33.1948   14.2886 C.ar        1 MOL      -0.0206
     36 C3         21.9935   32.6247   14.1904 C.ar        1 MOL       0.0595
     37 S1         23.5491   33.3552   14.2718 S.3         1 MOL       0.0026
     38 C1         24.3914   31.8756   14.0400 C.2         1 MOL       0.0809
     39 N1         23.4980   30.8614   13.8956 N.2         1 MOL      -0.2931
     40 C2         22.2035   31.2460   13.9993 C.ar        1 MOL       0.0375
     41 H1         13.7053   39.3177   19.4151 H           1 MOL       0.1855
     42 H2         14.8884   38.9766   17.2841 H           1 MOL       0.0584
     43 H3         16.1392   40.8712   16.8868 H           1 MOL       0.0313
     44 H4         17.4028   40.2425   17.9593 H           1 MOL       0.0313
     45 H5         16.7190   41.6589   19.7132 H           1 MOL       0.0503
     46 H6         15.7778   42.5288   18.4672 H           1 MOL       0.0503
     47 H7         15.4316   37.2433   18.9655 H           1 MOL       0.0634
     48 H8         16.6038   38.3154   19.7565 H           1 MOL       0.0634
     49 H9         18.6554   36.8519   16.1642 H           1 MOL       0.1873
     50 H10        19.8584   35.1064   15.7557 H           1 MOL       0.0604
     51 H11        21.9903   35.2568   16.8950 H           1 MOL       0.0449
     52 H12        21.2537   35.9761   18.3187 H           1 MOL       0.0449
     53 H13        21.3644   36.6430   14.5956 H           1 MOL       0.0557
     54 H14        21.8452   38.7927   13.6362 H           1 MOL       0.0599
     55 H15        22.3480   40.6889   15.0727 H           1 MOL       0.0559
     56 H16        22.2905   40.4310   17.4859 H           1 MOL       0.0599
     57 H17        21.7450   38.2989   18.4694 H           1 MOL       0.0557
     58 H18        19.5264   34.1066   18.5937 H           1 MOL       0.0634
     59 H19        20.7286   32.5789   18.1424 H           1 MOL       0.2100
     60 H20        17.5699   33.2398   18.0077 H           1 MOL       0.0504
     61 H21        18.4284   32.1100   17.0473 H           1 MOL       0.0504
     62 H22        15.6898   34.2487   15.1116 H           1 MOL       0.0481
     63 H23        16.7491   35.4776   15.7293 H           1 MOL       0.0481
     64 H24        16.0430   34.8985   18.0569 H           1 MOL       0.0314
     65 H25        13.8774   35.9463   17.9838 H           1 MOL       0.0233
     66 H26        13.6781   35.5287   16.2674 H           1 MOL       0.0233
     67 H27        14.9288   36.6880   16.7689 H           1 MOL       0.0233
     68 H28        13.6339   33.4747   17.8191 H           1 MOL       0.0266
     69 H29        15.0975   32.9382   18.6020 H           1 MOL       0.0266
     70 H30        14.1024   31.2768   16.9997 H           1 MOL       0.0230
     71 H31        15.7886   31.6672   16.6426 H           1 MOL       0.0230
     72 H32        14.4867   32.3723   15.6586 H           1 MOL       0.0230
     73 H33        18.9693   30.3073   14.0094 H           1 MOL       0.0580
     74 H34        21.2014   29.3938   13.7751 H           1 MOL       0.0584
     75 H35        20.6180   34.2011   14.3786 H           1 MOL       0.0592
     76 H36        25.3978   31.7756   13.9827 H           1 MOL       0.1260
@<TRIPOS>BOND
     1     1     2   2
     2     2     3  am
     3     2     6   1
     4     3     4   1
     5     4     5   1
     6     4     7   1
     7     5     6   1
     8     7     8   1
     9     8     9   1
    10     9    10   2
    11     9    11  am
    12    11    12   1
    13    12    13   1
    14    12    20   1
    15    13    14   1
    16    14    15  ar
    17    14    19  ar
    18    15    16  ar
    19    16    17  ar
    20    17    18  ar
    21    18    19  ar
    22    20    21   1
    23    20    22   1
    24    22    23   1
    25    23    24   1
    26    23    29  am
    27    24    25   1
    28    25    26   1
    29    25    27   1
    30    27    28   1
    31    29    30   2
    32    29    31   2
    33    29    32   1
    34    32    33  ar
    35    32    35  ar
    36    33    34  ar
    37    34    40  ar
    38    35    36  ar
    39    36    37   1
    40    36    40  ar
    41    37    38   1
    42    38    39   2
    43    39    40   1
    44     3    41   1
    45     4    42   1
    46     5    43   1
    47     5    44   1
    48     6    45   1
    49     6    46   1
    50     7    47   1
    51     7    48   1
    52    11    49   1
    53    12    50   1
    54    13    51   1
    55    13    52   1
    56    15    53   1
    57    16    54   1
    58    17    55   1
    59    18    56   1
    60    19    57   1
    61    20    58   1
    62    21    59   1
    63    22    60   1
    64    22    61   1
    65    24    62   1
    66    24    63   1
    67    25    64   1
    68    26    65   1
    69    26    66   1
    70    26    67   1
    71    27    68   1
    72    27    69   1
    73    28    70   1
    74    28    71   1
    75    28    72   1
    76    33    73   1
    77    34    74   1
    78    35    75   1
    79    38    76   1
@<TRIPOS>SUBSTRUCTURE
     1  MOL      2

