@<TRIPOS>MOLECULE
4djr_ligand_075
    76    79
SMALL
GAST_HUCK
****
This file was generated by PARSER (from files_GN.cpp)

@<TRIPOS>ATOM
      1 O28        22.7507   25.3173    5.9591 O.2         1 MOL      -0.3971
      2 C27        22.4136   24.3119    6.5647 C.2         1 MOL       0.1764
      3 N29        21.3718   24.2782    7.3458 N.am        1 MOL      -0.2812
      4 C24        21.2244   23.0836    8.0982 C.3         1 MOL       0.0716
      5 C25        22.2874   22.1549    7.4415 C.3         1 MOL      -0.0105
      6 C26        23.1732   23.0895    6.5917 C.3         1 MOL       0.0394
      7 C22        21.4293   23.3569    9.6149 C.3         1 MOL       0.1003
      8 O23        20.8903   24.6463    9.9379 O.3         1 MOL      -0.2616
      9 C21        21.2502   25.4696   10.9578 C.2         1 MOL       0.3200
     10 O22        22.2295   25.0982   11.8267 O.2         1 MOL      -0.3775
     11 N20        20.7073   26.7051   10.9336 N.am        1 MOL      -0.2550
     12 C19        21.0353   27.7812   11.8288 C.3         1 MOL       0.0807
     13 C32        22.1767   28.6316   11.1772 C.3         1 MOL       0.0064
     14 C38        23.4906   27.9288   11.1697 C.ar        1 MOL      -0.0408
     15 C37        24.2170   27.7784   12.3754 C.ar        1 MOL      -0.0603
     16 C36        25.4437   27.0946   12.3941 C.ar        1 MOL      -0.0686
     17 C35        25.9541   26.5310   11.2102 C.ar        1 MOL      -0.0687
     18 C34        25.2430   26.6635   10.0020 C.ar        1 MOL      -0.0686
     19 C33        24.0233   27.3634    9.9840 C.ar        1 MOL      -0.0603
     20 C17        19.7273   28.5976   12.1185 C.3         1 MOL       0.0967
     21 O18        19.5842   29.5854   11.1009 O.3         1 MOL      -0.3877
     22 C16        19.5885   29.1831   13.5715 C.3         1 MOL       0.0579
     23 N11        19.5938   30.6154   13.7894 N.am        1 MOL      -0.2317
     24 C12        20.5560   31.2602   14.6660 C.3         1 MOL       0.0322
     25 C13        20.4941   30.8537   16.1775 C.3         1 MOL      -0.0270
     26 C14        21.5982   31.5753   17.0056 C.3         1 MOL      -0.0610
     27 C15        19.0745   30.9998   16.8163 C.3         1 MOL      -0.0518
     28 C18        18.5667   32.4341   17.1085 C.3         1 MOL      -0.0650
     29 S8         18.4189   31.5715   13.0112 S.o2        1 MOL       0.0679
     30 O10        17.3640   30.6263   12.2766 O.2         1 MOL      -0.1506
     31 O9         19.1042   32.3610   11.8103 O.2         1 MOL      -0.1506
     32 C5         17.4024   32.5987   13.9832 C.ar        1 MOL       0.1007
     33 C6         17.4630   34.0102   13.8816 C.ar        1 MOL      -0.0433
     34 C7         16.6471   34.8167   14.7010 C.ar        1 MOL      -0.0517
     35 C4         16.4958   31.9883   14.8838 C.ar        1 MOL      -0.0206
     36 C3         15.7369   32.8071   15.7173 C.ar        1 MOL       0.0595
     37 S1         14.6321   32.4049   16.9592 S.3         1 MOL       0.0026
     38 C1         14.2771   34.0401   17.3483 C.2         1 MOL       0.0809
     39 N1         14.9868   34.8602   16.5357 N.2         1 MOL      -0.2931
     40 C2         15.7890   34.2106   15.6453 C.ar        1 MOL       0.0375
     41 H1         20.8026   25.0493    7.4844 H           1 MOL       0.1855
     42 H2         20.2159   22.6846    7.9309 H           1 MOL       0.0584
     43 H3         21.7898   21.4244    6.7958 H           1 MOL       0.0313
     44 H4         22.8853   21.6130    8.1731 H           1 MOL       0.0313
     45 H5         24.1403   23.2683    7.0639 H           1 MOL       0.0503
     46 H6         23.3159   22.6999    5.5810 H           1 MOL       0.0503
     47 H7         22.4944   23.3550    9.8454 H           1 MOL       0.0634
     48 H8         20.9316   22.5951   10.2159 H           1 MOL       0.0634
     49 H9         20.0748   26.8904   10.2191 H           1 MOL       0.1873
     50 H10        21.4024   27.3747   12.7757 H           1 MOL       0.0604
     51 H11        22.2855   29.5751   11.7204 H           1 MOL       0.0449
     52 H12        21.8969   28.8912   10.1526 H           1 MOL       0.0449
     53 H13        23.8537   28.1727   13.2446 H           1 MOL       0.0557
     54 H14        25.9601   27.0081   13.2653 H           1 MOL       0.0599
     55 H15        26.8453   26.0247   11.2285 H           1 MOL       0.0559
     56 H16        25.6121   26.2535    9.1453 H           1 MOL       0.0599
     57 H17        23.5123   27.4412    9.1022 H           1 MOL       0.0557
     58 H18        18.8780   27.9190   12.0114 H           1 MOL       0.0634
     59 H19        19.1179   29.1231   10.3410 H           1 MOL       0.2100
     60 H20        20.3562   28.7140   14.1894 H           1 MOL       0.0504
     61 H21        18.6460   28.8240   14.0040 H           1 MOL       0.0504
     62 H22        20.4746   32.3533   14.6058 H           1 MOL       0.0481
     63 H23        21.5489   30.9985   14.2832 H           1 MOL       0.0481
     64 H24        20.7417   29.8002   16.2563 H           1 MOL       0.0314
     65 H25        21.5485   31.2698   18.0575 H           1 MOL       0.0233
     66 H26        21.4920   32.6637   16.9555 H           1 MOL       0.0233
     67 H27        22.5895   31.3141   16.6298 H           1 MOL       0.0233
     68 H28        19.0604   30.4468   17.7626 H           1 MOL       0.0266
     69 H29        18.3452   30.5020   16.1777 H           1 MOL       0.0266
     70 H30        17.5312   32.4003   17.4533 H           1 MOL       0.0230
     71 H31        18.6047   33.0447   16.2092 H           1 MOL       0.0230
     72 H32        19.1675   32.9063   17.8666 H           1 MOL       0.0230
     73 H33        18.0962   34.4566   13.2278 H           1 MOL       0.0580
     74 H34        16.6836   35.8391   14.6273 H           1 MOL       0.0584
     75 H35        16.4085   30.9753   14.9465 H           1 MOL       0.0592
     76 H36        13.6314   34.3462   18.0709 H           1 MOL       0.1260
@<TRIPOS>BOND
     1     1     2   2
     2     2     3  am
     3     2     6   1
     4     3     4   1
     5     4     5   1
     6     4     7   1
     7     5     6   1
     8     7     8   1
     9     8     9   1
    10     9    10   2
    11     9    11  am
    12    11    12   1
    13    12    13   1
    14    12    20   1
    15    13    14   1
    16    14    15  ar
    17    14    19  ar
    18    15    16  ar
    19    16    17  ar
    20    17    18  ar
    21    18    19  ar
    22    20    21   1
    23    20    22   1
    24    22    23   1
    25    23    24   1
    26    23    29  am
    27    24    25   1
    28    25    26   1
    29    25    27   1
    30    27    28   1
    31    29    30   2
    32    29    31   2
    33    29    32   1
    34    32    33  ar
    35    32    35  ar
    36    33    34  ar
    37    34    40  ar
    38    35    36  ar
    39    36    37   1
    40    36    40  ar
    41    37    38   1
    42    38    39   2
    43    39    40   1
    44     3    41   1
    45     4    42   1
    46     5    43   1
    47     5    44   1
    48     6    45   1
    49     6    46   1
    50     7    47   1
    51     7    48   1
    52    11    49   1
    53    12    50   1
    54    13    51   1
    55    13    52   1
    56    15    53   1
    57    16    54   1
    58    17    55   1
    59    18    56   1
    60    19    57   1
    61    20    58   1
    62    21    59   1
    63    22    60   1
    64    22    61   1
    65    24    62   1
    66    24    63   1
    67    25    64   1
    68    26    65   1
    69    26    66   1
    70    26    67   1
    71    27    68   1
    72    27    69   1
    73    28    70   1
    74    28    71   1
    75    28    72   1
    76    33    73   1
    77    34    74   1
    78    35    75   1
    79    38    76   1
@<TRIPOS>SUBSTRUCTURE
     1  MOL      2

