@<TRIPOS>MOLECULE
4djr_ligand_079
    76    79
SMALL
GAST_HUCK
****
This file was generated by PARSER (from files_GN.cpp)

@<TRIPOS>ATOM
      1 O28        18.3766   35.7729   18.1333 O.2         1 MOL      -0.3971
      2 C27        18.3173   34.8226   17.3673 C.2         1 MOL       0.1764
      3 N29        18.7080   34.8875   16.1197 N.am        1 MOL      -0.2812
      4 C24        18.4893   33.7049   15.3714 C.3         1 MOL       0.0716
      5 C25        17.9591   32.7113   16.4434 C.3         1 MOL      -0.0105
      6 C26        17.7738   33.5483   17.7264 C.3         1 MOL       0.0394
      7 C22        17.5189   33.9810   14.1909 C.3         1 MOL       0.1003
      8 O23        17.0905   32.7517   13.5966 O.3         1 MOL      -0.2616
      9 C21        17.7304   31.9755   12.6869 C.2         1 MOL       0.3200
     10 O22        18.8851   32.3735   12.1047 O.2         1 MOL      -0.3775
     11 N20        17.1583   30.7707   12.4817 N.am        1 MOL      -0.2550
     12 C19        17.6901   29.6108   11.8133 C.3         1 MOL       0.0807
     13 C32        18.2308   28.6581   12.9367 C.3         1 MOL       0.0064
     14 C38        19.6165   28.8245   13.4792 C.ar        1 MOL      -0.0408
     15 C37        20.0181   27.9344   14.5114 C.ar        1 MOL      -0.0603
     16 C36        21.3368   27.9310   15.0008 C.ar        1 MOL      -0.0686
     17 C35        22.2795   28.8394   14.4914 C.ar        1 MOL      -0.0687
     18 C34        21.9004   29.7513   13.4907 C.ar        1 MOL      -0.0686
     19 C33        20.5877   29.7333   12.9817 C.ar        1 MOL      -0.0603
     20 C17        16.5386   29.0079   10.9234 C.3         1 MOL       0.0967
     21 O18        15.3212   28.9845   11.6814 O.3         1 MOL      -0.3877
     22 C16        16.6983   27.5731   10.3164 C.3         1 MOL       0.0579
     23 N11        17.8914   27.2953    9.5386 N.am        1 MOL      -0.2317
     24 C12        18.0455   27.8840    8.2193 C.3         1 MOL       0.0322
     25 C13        18.2039   26.9073    7.0052 C.3         1 MOL      -0.0270
     26 C14        17.1355   25.7754    6.9764 C.3         1 MOL      -0.0610
     27 C15        18.3093   27.6519    5.6294 C.3         1 MOL      -0.0518
     28 C18        17.0562   28.4192    5.1353 C.3         1 MOL      -0.0650
     29 S8         19.0813   26.2244   10.1252 S.o2        1 MOL       0.0679
     30 O10        19.2150   24.9569    9.1777 O.2         1 MOL      -0.1506
     31 O9         18.5762   25.4293   11.4103 O.2         1 MOL      -0.1506
     32 C5         20.7018   26.7582   10.4998 C.ar        1 MOL       0.1007
     33 C6         21.0646   28.1267   10.4101 C.ar        1 MOL      -0.0433
     34 C7         22.3919   28.5428   10.6392 C.ar        1 MOL      -0.0517
     35 C4         21.6826   25.8061   10.8618 C.ar        1 MOL      -0.0206
     36 C3         22.9932   26.2419   11.0996 C.ar        1 MOL       0.0595
     37 S1         24.4034   25.3717   11.5393 S.3         1 MOL       0.0026
     38 C1         25.4101   26.7654   11.5664 C.2         1 MOL       0.0809
     39 N1         24.6751   27.8534   11.2493 N.2         1 MOL      -0.2931
     40 C2         23.3659   27.5909   10.9901 C.ar        1 MOL       0.0375
     41 H1         19.0603   35.6972   15.7227 H           1 MOL       0.1855
     42 H2         19.4487   33.3564   14.9769 H           1 MOL       0.0584
     43 H3         18.6919   31.9164   16.6162 H           1 MOL       0.0313
     44 H4         17.0132   32.2437   16.1554 H           1 MOL       0.0313
     45 H5         16.7178   33.6465   17.9909 H           1 MOL       0.0503
     46 H6         18.3274   33.1206   18.5642 H           1 MOL       0.0503
     47 H7         17.9945   34.6269   13.4453 H           1 MOL       0.0634
     48 H8         16.6276   34.4913   14.5641 H           1 MOL       0.0634
     49 H9         16.3364   30.6206   12.9763 H           1 MOL       0.1873
     50 H10        18.5074   29.8850   11.1345 H           1 MOL       0.0604
     51 H11        18.2032   27.6470   12.5618 H           1 MOL       0.0449
     52 H12        17.5334   28.6879   13.7790 H           1 MOL       0.0449
     53 H13        19.3494   27.2609   14.8973 H           1 MOL       0.0557
     54 H14        21.6109   27.2664   15.7246 H           1 MOL       0.0599
     55 H15        23.2423   28.8252   14.8389 H           1 MOL       0.0559
     56 H16        22.5877   30.4105   13.1207 H           1 MOL       0.0599
     57 H17        20.3616   30.3650   12.2192 H           1 MOL       0.0557
     58 H18        16.3798   29.7041   10.0935 H           1 MOL       0.0634
     59 H19        14.5945   29.2080   11.0548 H           1 MOL       0.2100
     60 H20        15.8374   27.3943    9.6624 H           1 MOL       0.0504
     61 H21        16.5738   26.8463   11.1213 H           1 MOL       0.0504
     62 H22        18.9224   28.5286    8.2389 H           1 MOL       0.0481
     63 H23        17.1983   28.5434    8.0032 H           1 MOL       0.0481
     64 H24        19.1710   26.4164    7.1234 H           1 MOL       0.0314
     65 H25        17.3378   25.0905    6.1489 H           1 MOL       0.0233
     66 H26        16.1337   26.1867    6.8521 H           1 MOL       0.0233
     67 H27        17.1526   25.1987    7.9008 H           1 MOL       0.0233
     68 H28        18.5703   26.9197    4.8611 H           1 MOL       0.0266
     69 H29        19.1370   28.3655    5.6790 H           1 MOL       0.0266
     70 H30        17.2462   28.8189    4.1373 H           1 MOL       0.0230
     71 H31        16.8261   29.2556    5.7986 H           1 MOL       0.0230
     72 H32        16.1881   27.7596    5.0780 H           1 MOL       0.0230
     73 H33        20.3647   28.8301   10.1808 H           1 MOL       0.0580
     74 H34        22.6434   29.5305   10.5571 H           1 MOL       0.0584
     75 H35        21.4566   24.8119   10.9430 H           1 MOL       0.0592
     76 H36        26.4058   26.7648   11.7868 H           1 MOL       0.1260
@<TRIPOS>BOND
     1     1     2   2
     2     2     3  am
     3     2     6   1
     4     3     4   1
     5     4     5   1
     6     4     7   1
     7     5     6   1
     8     7     8   1
     9     8     9   1
    10     9    10   2
    11     9    11  am
    12    11    12   1
    13    12    13   1
    14    12    20   1
    15    13    14   1
    16    14    15  ar
    17    14    19  ar
    18    15    16  ar
    19    16    17  ar
    20    17    18  ar
    21    18    19  ar
    22    20    21   1
    23    20    22   1
    24    22    23   1
    25    23    24   1
    26    23    29  am
    27    24    25   1
    28    25    26   1
    29    25    27   1
    30    27    28   1
    31    29    30   2
    32    29    31   2
    33    29    32   1
    34    32    33  ar
    35    32    35  ar
    36    33    34  ar
    37    34    40  ar
    38    35    36  ar
    39    36    37   1
    40    36    40  ar
    41    37    38   1
    42    38    39   2
    43    39    40   1
    44     3    41   1
    45     4    42   1
    46     5    43   1
    47     5    44   1
    48     6    45   1
    49     6    46   1
    50     7    47   1
    51     7    48   1
    52    11    49   1
    53    12    50   1
    54    13    51   1
    55    13    52   1
    56    15    53   1
    57    16    54   1
    58    17    55   1
    59    18    56   1
    60    19    57   1
    61    20    58   1
    62    21    59   1
    63    22    60   1
    64    22    61   1
    65    24    62   1
    66    24    63   1
    67    25    64   1
    68    26    65   1
    69    26    66   1
    70    26    67   1
    71    27    68   1
    72    27    69   1
    73    28    70   1
    74    28    71   1
    75    28    72   1
    76    33    73   1
    77    34    74   1
    78    35    75   1
    79    38    76   1
@<TRIPOS>SUBSTRUCTURE
     1  MOL      2

