@<TRIPOS>MOLECULE
4djr_ligand_076
    76    79
SMALL
GAST_HUCK
****
This file was generated by PARSER (from files_GN.cpp)

@<TRIPOS>ATOM
      1 O28        23.9286   32.7531   17.8516 O.2         1 MOL      -0.3971
      2 C27        23.4080   32.8809   16.7545 C.2         1 MOL       0.1764
      3 N29        22.7986   31.8968   16.1440 N.am        1 MOL      -0.2812
      4 C24        22.2361   32.2544   14.8937 C.3         1 MOL       0.0716
      5 C25        22.6013   33.7560   14.7444 C.3         1 MOL      -0.0105
      6 C26        23.3907   34.1118   16.0214 C.3         1 MOL       0.0394
      7 C22        22.7537   31.3387   13.7509 C.3         1 MOL       0.1003
      8 O23        21.9708   30.1368   13.7324 O.3         1 MOL      -0.2616
      9 C21        21.1164   29.7248   12.7592 C.2         1 MOL       0.3200
     10 O22        20.9275   30.4526   11.6329 O.2         1 MOL      -0.3775
     11 N20        20.3766   28.6284   13.0348 N.am        1 MOL      -0.2550
     12 C19        19.3188   28.0599   12.2431 C.3         1 MOL       0.0807
     13 C32        18.1040   29.0330   12.0261 C.3         1 MOL       0.0064
     14 C38        17.8115   29.9345   13.1822 C.ar        1 MOL      -0.0408
     15 C37        17.2570   29.4182   14.3785 C.ar        1 MOL      -0.0603
     16 C36        17.0218   30.2549   15.4859 C.ar        1 MOL      -0.0686
     17 C35        17.3604   31.6184   15.4231 C.ar        1 MOL      -0.0687
     18 C34        17.9089   32.1499   14.2428 C.ar        1 MOL      -0.0686
     19 C33        18.1206   31.3162   13.1278 C.ar        1 MOL      -0.0603
     20 C17        19.9079   27.4197   10.9392 C.3         1 MOL       0.0967
     21 O18        20.2429   28.4472   10.0103 O.3         1 MOL      -0.3877
     22 C16        19.0354   26.3496   10.2172 C.3         1 MOL       0.0579
     23 N11        19.0480   25.0496   10.8583 N.am        1 MOL      -0.2317
     24 C12        18.0610   24.7235   11.8674 C.3         1 MOL       0.0322
     25 C13        17.0462   23.5553   11.5796 C.3         1 MOL      -0.0270
     26 C14        16.9215   23.2011   10.0677 C.3         1 MOL      -0.0610
     27 C15        17.1303   22.2618   12.4829 C.3         1 MOL      -0.0518
     28 C18        18.3282   22.0447   13.4458 C.3         1 MOL      -0.0650
     29 S8         20.3885   24.0201   10.6311 S.o2        1 MOL       0.0679
     30 O10        19.9557   22.4914   10.5646 O.2         1 MOL      -0.1506
     31 O9         21.4280   24.1295   11.8307 O.2         1 MOL      -0.1506
     32 C5         21.2810   24.2949    9.1582 C.ar        1 MOL       0.1007
     33 C6         22.2139   25.3589    9.0842 C.ar        1 MOL      -0.0433
     34 C7         22.8750   25.6633    7.8781 C.ar        1 MOL      -0.0517
     35 C4         21.0517   23.4929    8.0138 C.ar        1 MOL      -0.0206
     36 C3         21.7421   23.7934    6.8295 C.ar        1 MOL       0.0595
     37 S1         21.7161   23.0497    5.2820 S.3         1 MOL       0.0026
     38 C1         22.8334   24.1615    4.5907 C.2         1 MOL       0.0809
     39 N1         23.1959   25.0665    5.5231 N.2         1 MOL      -0.2931
     40 C2         22.6326   24.8745    6.7433 C.ar        1 MOL       0.0375
     41 H1         22.7336   31.0004   16.5203 H           1 MOL       0.1855
     42 H2         21.1479   32.1553   14.9685 H           1 MOL       0.0584
     43 H3         21.6928   34.3621   14.6748 H           1 MOL       0.0313
     44 H4         23.2078   33.9508   13.8556 H           1 MOL       0.0313
     45 H5         24.4086   34.4287   15.7813 H           1 MOL       0.0503
     46 H6         22.8863   34.8932   16.5949 H           1 MOL       0.0503
     47 H7         23.8054   31.0831   13.8988 H           1 MOL       0.0634
     48 H8         22.6699   31.8617   12.7962 H           1 MOL       0.0634
     49 H9         20.5641   28.1907   13.8834 H           1 MOL       0.1873
     50 H10        18.9489   27.2448   12.8662 H           1 MOL       0.0604
     51 H11        17.2034   28.4441   11.8223 H           1 MOL       0.0449
     52 H12        18.2763   29.6368   11.1319 H           1 MOL       0.0449
     53 H13        17.0150   28.4261   14.4487 H           1 MOL       0.0557
     54 H14        16.6135   29.8735   16.3400 H           1 MOL       0.0599
     55 H15        17.2081   32.2222   16.2334 H           1 MOL       0.0559
     56 H16        18.1617   33.1404   14.1965 H           1 MOL       0.0599
     57 H17        18.5233   31.7232   12.2825 H           1 MOL       0.0557
     58 H18        20.8473   26.9398   11.2146 H           1 MOL       0.0634
     59 H19        20.8341   28.0329    9.3492 H           1 MOL       0.2100
     60 H20        19.3927   26.2318    9.1925 H           1 MOL       0.0504
     61 H21        18.0162   26.7323   10.1163 H           1 MOL       0.0504
     62 H22        17.4503   25.6102   12.0587 H           1 MOL       0.0481
     63 H23        18.5794   24.5664   12.8117 H           1 MOL       0.0481
     64 H24        16.0591   23.9776   11.8072 H           1 MOL       0.0314
     65 H25        16.0480   22.5642    9.8997 H           1 MOL       0.0233
     66 H26        17.8003   22.6592    9.7142 H           1 MOL       0.0233
     67 H27        16.8038   24.1077    9.4683 H           1 MOL       0.0233
     68 H28        17.0680   21.3673   11.8556 H           1 MOL       0.0266
     69 H29        16.2366   22.2319   13.1168 H           1 MOL       0.0266
     70 H30        18.1945   21.0986   13.9756 H           1 MOL       0.0230
     71 H31        18.3846   22.8290   14.1979 H           1 MOL       0.0230
     72 H32        19.2697   21.9970   12.9023 H           1 MOL       0.0230
     73 H33        22.4147   25.9314    9.9069 H           1 MOL       0.0580
     74 H34        23.5230   26.4536    7.8321 H           1 MOL       0.0584
     75 H35        20.3911   22.7117    8.0296 H           1 MOL       0.0592
     76 H36        23.1625   24.1442    3.6247 H           1 MOL       0.1260
@<TRIPOS>BOND
     1     1     2   2
     2     2     3  am
     3     2     6   1
     4     3     4   1
     5     4     5   1
     6     4     7   1
     7     5     6   1
     8     7     8   1
     9     8     9   1
    10     9    10   2
    11     9    11  am
    12    11    12   1
    13    12    13   1
    14    12    20   1
    15    13    14   1
    16    14    15  ar
    17    14    19  ar
    18    15    16  ar
    19    16    17  ar
    20    17    18  ar
    21    18    19  ar
    22    20    21   1
    23    20    22   1
    24    22    23   1
    25    23    24   1
    26    23    29  am
    27    24    25   1
    28    25    26   1
    29    25    27   1
    30    27    28   1
    31    29    30   2
    32    29    31   2
    33    29    32   1
    34    32    33  ar
    35    32    35  ar
    36    33    34  ar
    37    34    40  ar
    38    35    36  ar
    39    36    37   1
    40    36    40  ar
    41    37    38   1
    42    38    39   2
    43    39    40   1
    44     3    41   1
    45     4    42   1
    46     5    43   1
    47     5    44   1
    48     6    45   1
    49     6    46   1
    50     7    47   1
    51     7    48   1
    52    11    49   1
    53    12    50   1
    54    13    51   1
    55    13    52   1
    56    15    53   1
    57    16    54   1
    58    17    55   1
    59    18    56   1
    60    19    57   1
    61    20    58   1
    62    21    59   1
    63    22    60   1
    64    22    61   1
    65    24    62   1
    66    24    63   1
    67    25    64   1
    68    26    65   1
    69    26    66   1
    70    26    67   1
    71    27    68   1
    72    27    69   1
    73    28    70   1
    74    28    71   1
    75    28    72   1
    76    33    73   1
    77    34    74   1
    78    35    75   1
    79    38    76   1
@<TRIPOS>SUBSTRUCTURE
     1  MOL      2

