@<TRIPOS>MOLECULE
4djr_ligand_081
    76    79
SMALL
GAST_HUCK
****
This file was generated by PARSER (from files_GN.cpp)

@<TRIPOS>ATOM
      1 O28        15.4823   38.3623   24.0940 O.2         1 MOL      -0.3971
      2 C27        15.7609   38.7737   22.9749 C.2         1 MOL       0.1764
      3 N29        15.0944   38.4216   21.9075 N.am        1 MOL      -0.2812
      4 C24        15.4755   39.1018   20.7201 C.3         1 MOL       0.0716
      5 C25        16.7426   39.8826   21.1798 C.3         1 MOL      -0.0105
      6 C26        16.7468   39.7764   22.7206 C.3         1 MOL       0.0394
      7 C22        15.6095   38.1516   19.4856 C.3         1 MOL       0.1003
      8 O23        16.9390   38.0100   18.9528 O.3         1 MOL      -0.2616
      9 C21        17.6984   36.8852   18.9145 C.2         1 MOL       0.3200
     10 O22        17.2397   35.7500   19.4925 O.2         1 MOL      -0.3775
     11 N20        18.9175   36.9606   18.3291 N.am        1 MOL      -0.2550
     12 C19        19.9407   35.9434   18.2824 C.3         1 MOL       0.0807
     13 C32        20.6038   35.7367   19.6971 C.3         1 MOL       0.0064
     14 C38        21.7321   36.6589   20.0225 C.ar        1 MOL      -0.0408
     15 C37        22.9077   36.1887   20.6661 C.ar        1 MOL      -0.0603
     16 C36        23.9375   37.0771   21.0228 C.ar        1 MOL      -0.0686
     17 C35        23.8255   38.4476   20.7237 C.ar        1 MOL      -0.0687
     18 C34        22.6652   38.9308   20.0890 C.ar        1 MOL      -0.0686
     19 C33        21.6246   38.0469   19.7583 C.ar        1 MOL      -0.0603
     20 C17        19.4343   34.6403   17.5803 C.3         1 MOL       0.0967
     21 O18        18.4034   34.0482   18.3745 O.3         1 MOL      -0.3877
     22 C16        20.5369   33.5664   17.2916 C.3         1 MOL       0.0579
     23 N11        21.0530   33.5716   15.9397 N.am        1 MOL      -0.2317
     24 C12        20.4615   32.7379   14.9072 C.3         1 MOL       0.0322
     25 C13        21.1057   31.3047   14.7974 C.3         1 MOL      -0.0270
     26 C14        20.2628   30.2066   15.5070 C.3         1 MOL      -0.0610
     27 C15        21.4704   30.8783   13.3405 C.3         1 MOL      -0.0518
     28 C18        20.3070   30.8545   12.3184 C.3         1 MOL      -0.0650
     29 S8         22.5451   34.3299   15.6429 S.o2        1 MOL       0.0679
     30 O10        22.9717   34.0960   14.1276 O.2         1 MOL      -0.1506
     31 O9         23.6874   33.5855   16.4618 O.2         1 MOL      -0.1506
     32 C5         22.5538   36.0556   15.8728 C.ar        1 MOL       0.1007
     33 C6         23.2925   36.6419   16.9247 C.ar        1 MOL      -0.0433
     34 C7         23.2630   38.0346   17.1419 C.ar        1 MOL      -0.0517
     35 C4         21.7863   36.8761   15.0145 C.ar        1 MOL      -0.0206
     36 C3         21.7784   38.2629   15.2383 C.ar        1 MOL       0.0595
     37 S1         20.9830   39.5360   14.4141 S.3         1 MOL       0.0026
     38 C1         21.6040   40.7680   15.4438 C.2         1 MOL       0.0809
     39 N1         22.3921   40.2018   16.3810 N.2         1 MOL      -0.2931
     40 C2         22.5021   38.8504   16.2889 C.ar        1 MOL       0.0375
     41 H1         14.3154   37.8414   21.9536 H           1 MOL       0.1855
     42 H2         14.6757   39.8242   20.5169 H           1 MOL       0.0584
     43 H3         16.6983   40.9254   20.8550 H           1 MOL       0.0313
     44 H4         17.6640   39.4380   20.8003 H           1 MOL       0.0313
     45 H5         17.7247   39.4652   23.1019 H           1 MOL       0.0503
     46 H6         16.4513   40.7215   23.1870 H           1 MOL       0.0503
     47 H7         14.9980   38.5476   18.6715 H           1 MOL       0.0634
     48 H8         15.1903   37.1715   19.7320 H           1 MOL       0.0634
     49 H9         19.1271   37.8099   17.9051 H           1 MOL       0.1873
     50 H10        20.7012   36.3484   17.6202 H           1 MOL       0.0604
     51 H11        20.9335   34.6991   19.7925 H           1 MOL       0.0449
     52 H12        19.8549   35.8681   20.4822 H           1 MOL       0.0449
     53 H13        23.0155   35.1972   20.8881 H           1 MOL       0.0557
     54 H14        24.7735   36.7292   21.4959 H           1 MOL       0.0599
     55 H15        24.5708   39.0925   20.9899 H           1 MOL       0.0559
     56 H16        22.5685   39.9292   19.9023 H           1 MOL       0.0599
     57 H17        20.7726   38.4293   19.3477 H           1 MOL       0.0557
     58 H18        18.9690   34.9218   16.6304 H           1 MOL       0.0634
     59 H19        17.9937   33.3519   17.8047 H           1 MOL       0.2100
     60 H20        20.1120   32.5802   17.4899 H           1 MOL       0.0504
     61 H21        21.3416   33.6698   18.0259 H           1 MOL       0.0504
     62 H22        20.5415   33.2674   13.9550 H           1 MOL       0.0481
     63 H23        19.3886   32.6503   15.0870 H           1 MOL       0.0481
     64 H24        22.0624   31.3332   15.3328 H           1 MOL       0.0314
     65 H25        20.7486   29.2333   15.4131 H           1 MOL       0.0233
     66 H26        19.2644   30.1355   15.0743 H           1 MOL       0.0233
     67 H27        20.1578   30.4206   16.5707 H           1 MOL       0.0233
     68 H28        21.9068   29.8761   13.3703 H           1 MOL       0.0266
     69 H29        22.2472   31.5437   12.9583 H           1 MOL       0.0266
     70 H30        20.6715   30.4786   11.3628 H           1 MOL       0.0230
     71 H31        19.9119   31.8565   12.1678 H           1 MOL       0.0230
     72 H32        19.5049   30.2014   12.6552 H           1 MOL       0.0230
     73 H33        23.8551   36.0609   17.5446 H           1 MOL       0.0580
     74 H34        23.7865   38.4501   17.9136 H           1 MOL       0.0584
     75 H35        21.2421   36.4781   14.2502 H           1 MOL       0.0592
     76 H36        21.4079   41.7644   15.3528 H           1 MOL       0.1260
@<TRIPOS>BOND
     1     1     2   2
     2     2     3  am
     3     2     6   1
     4     3     4   1
     5     4     5   1
     6     4     7   1
     7     5     6   1
     8     7     8   1
     9     8     9   1
    10     9    10   2
    11     9    11  am
    12    11    12   1
    13    12    13   1
    14    12    20   1
    15    13    14   1
    16    14    15  ar
    17    14    19  ar
    18    15    16  ar
    19    16    17  ar
    20    17    18  ar
    21    18    19  ar
    22    20    21   1
    23    20    22   1
    24    22    23   1
    25    23    24   1
    26    23    29  am
    27    24    25   1
    28    25    26   1
    29    25    27   1
    30    27    28   1
    31    29    30   2
    32    29    31   2
    33    29    32   1
    34    32    33  ar
    35    32    35  ar
    36    33    34  ar
    37    34    40  ar
    38    35    36  ar
    39    36    37   1
    40    36    40  ar
    41    37    38   1
    42    38    39   2
    43    39    40   1
    44     3    41   1
    45     4    42   1
    46     5    43   1
    47     5    44   1
    48     6    45   1
    49     6    46   1
    50     7    47   1
    51     7    48   1
    52    11    49   1
    53    12    50   1
    54    13    51   1
    55    13    52   1
    56    15    53   1
    57    16    54   1
    58    17    55   1
    59    18    56   1
    60    19    57   1
    61    20    58   1
    62    21    59   1
    63    22    60   1
    64    22    61   1
    65    24    62   1
    66    24    63   1
    67    25    64   1
    68    26    65   1
    69    26    66   1
    70    26    67   1
    71    27    68   1
    72    27    69   1
    73    28    70   1
    74    28    71   1
    75    28    72   1
    76    33    73   1
    77    34    74   1
    78    35    75   1
    79    38    76   1
@<TRIPOS>SUBSTRUCTURE
     1  MOL      2

