@<TRIPOS>MOLECULE
4djr_ligand_002
    76    79
SMALL
GAST_HUCK
****
This file was generated by PARSER (from files_GN.cpp)

@<TRIPOS>ATOM
      1 O28        22.2806   30.7458   12.3931 O.2         1 MOL      -0.3971
      2 C27        22.1861   31.6351   13.2245 C.2         1 MOL       0.1764
      3 N29        23.2218   32.2530   13.7356 N.am        1 MOL      -0.2812
      4 C24        22.9057   33.1865   14.7571 C.3         1 MOL       0.0716
      5 C25        21.3530   33.2350   14.6931 C.3         1 MOL      -0.0105
      6 C26        20.9382   32.0725   13.7696 C.3         1 MOL       0.0394
      7 C22        23.5343   32.7339   16.1086 C.3         1 MOL       0.1003
      8 O23        22.7576   33.0620   17.2634 O.3         1 MOL      -0.2616
      9 C21        22.4865   34.2645   17.8250 C.2         1 MOL       0.3200
     10 O22        23.0038   35.3984   17.2975 O.2         1 MOL      -0.3775
     11 N20        21.6258   34.2355   18.8688 N.am        1 MOL      -0.2550
     12 C19        21.0132   35.3212   19.5818 C.3         1 MOL       0.0807
     13 C32        21.8869   36.6007   19.8086 C.3         1 MOL       0.0064
     14 C38        23.0623   36.5300   20.7334 C.ar        1 MOL      -0.0408
     15 C37        23.8448   37.6993   20.9176 C.ar        1 MOL      -0.0603
     16 C36        24.8759   37.7454   21.8758 C.ar        1 MOL      -0.0686
     17 C35        25.1502   36.6164   22.6667 C.ar        1 MOL      -0.0687
     18 C34        24.4122   35.4379   22.4786 C.ar        1 MOL      -0.0686
     19 C33        23.3858   35.3930   21.5170 C.ar        1 MOL      -0.0603
     20 C17        19.5629   35.6098   19.0540 C.3         1 MOL       0.0967
     21 O18        18.6966   34.5649   19.4936 O.3         1 MOL      -0.3877
     22 C16        19.3907   35.7576   17.5128 C.3         1 MOL       0.0579
     23 N11        18.1222   36.3178   17.0804 N.am        1 MOL      -0.2317
     24 C12        17.2910   35.6352   16.0989 C.3         1 MOL       0.0322
     25 C13        15.9682   34.9561   16.5957 C.3         1 MOL      -0.0270
     26 C14        16.2254   33.6049   17.3211 C.3         1 MOL      -0.0610
     27 C15        15.0505   35.9043   17.4307 C.3         1 MOL      -0.0518
     28 C18        13.5583   35.5012   17.4641 C.3         1 MOL      -0.0650
     29 S8         17.8015   37.9494   17.4497 S.o2        1 MOL       0.0679
     30 O10        16.9236   38.0946   18.7665 O.2         1 MOL      -0.1506
     31 O9         16.9545   38.6411   16.2933 O.2         1 MOL      -0.1506
     32 C5         19.2214   38.9641   17.5314 C.ar        1 MOL       0.1007
     33 C6         19.9518   39.2560   16.3544 C.ar        1 MOL      -0.0433
     34 C7         21.1203   40.0477   16.4064 C.ar        1 MOL      -0.0517
     35 C4         19.6616   39.4782   18.7722 C.ar        1 MOL      -0.0206
     36 C3         20.8290   40.2571   18.8034 C.ar        1 MOL       0.0595
     37 S1         21.6475   41.0015   20.1125 S.3         1 MOL       0.0026
     38 C1         22.8968   41.6524   19.1247 C.2         1 MOL       0.0809
     39 N1         22.6777   41.3004   17.8404 N.2         1 MOL      -0.2931
     40 C2         21.5636   40.5442   17.6436 C.ar        1 MOL       0.0375
     41 H1         24.1325   32.0307   13.4851 H           1 MOL       0.1855
     42 H2         23.3158   34.1631   14.4796 H           1 MOL       0.0584
     43 H3         21.0370   34.1878   14.2551 H           1 MOL       0.0313
     44 H4         20.8756   33.1334   15.6697 H           1 MOL       0.0313
     45 H5         20.4655   31.2654   14.3359 H           1 MOL       0.0503
     46 H6         20.2635   32.4170   12.9811 H           1 MOL       0.0503
     47 H7         24.5402   33.1539   16.2051 H           1 MOL       0.0634
     48 H8         23.6230   31.6464   16.1245 H           1 MOL       0.0634
     49 H9         21.2867   33.3535   19.0924 H           1 MOL       0.1873
     50 H10        20.8537   34.9260   20.5924 H           1 MOL       0.0604
     51 H11        21.2368   37.3663   20.2369 H           1 MOL       0.0449
     52 H12        22.2145   36.9874   18.8432 H           1 MOL       0.0449
     53 H13        23.6538   38.5440   20.3722 H           1 MOL       0.0557
     54 H14        25.4174   38.6032   22.0119 H           1 MOL       0.0599
     55 H15        25.8787   36.6544   23.3835 H           1 MOL       0.0559
     56 H16        24.6016   34.6152   23.0549 H           1 MOL       0.0599
     57 H17        22.8587   34.5258   21.4307 H           1 MOL       0.0557
     58 H18        19.2018   36.5124   19.5453 H           1 MOL       0.0634
     59 H19        19.1746   33.7260   19.3165 H           1 MOL       0.2100
     60 H20        19.5369   34.7649   17.0843 H           1 MOL       0.0504
     61 H21        20.1930   36.3800   17.1138 H           1 MOL       0.0504
     62 H22        17.8767   34.8719   15.5756 H           1 MOL       0.0481
     63 H23        17.0169   36.3354   15.3048 H           1 MOL       0.0481
     64 H24        15.4153   34.7013   15.6839 H           1 MOL       0.0314
     65 H25        15.2910   33.0564   17.4555 H           1 MOL       0.0233
     66 H26        16.6617   33.7735   18.3023 H           1 MOL       0.0233
     67 H27        16.8967   32.9736   16.7399 H           1 MOL       0.0233
     68 H28        15.0950   36.9094   17.0060 H           1 MOL       0.0266
     69 H29        15.4143   35.9548   18.4591 H           1 MOL       0.0266
     70 H30        12.9824   36.2722   17.9780 H           1 MOL       0.0230
     71 H31        13.4229   34.5585   17.9976 H           1 MOL       0.0230
     72 H32        13.1675   35.3981   16.4533 H           1 MOL       0.0230
     73 H33        19.6398   38.8951   15.4490 H           1 MOL       0.0580
     74 H34        21.6392   40.2560   15.5507 H           1 MOL       0.0584
     75 H35        19.1623   39.2839   19.6418 H           1 MOL       0.0592
     76 H36        23.6857   42.2085   19.4593 H           1 MOL       0.1260
@<TRIPOS>BOND
     1     1     2   2
     2     2     3  am
     3     2     6   1
     4     3     4   1
     5     4     5   1
     6     4     7   1
     7     5     6   1
     8     7     8   1
     9     8     9   1
    10     9    10   2
    11     9    11  am
    12    11    12   1
    13    12    13   1
    14    12    20   1
    15    13    14   1
    16    14    15  ar
    17    14    19  ar
    18    15    16  ar
    19    16    17  ar
    20    17    18  ar
    21    18    19  ar
    22    20    21   1
    23    20    22   1
    24    22    23   1
    25    23    24   1
    26    23    29  am
    27    24    25   1
    28    25    26   1
    29    25    27   1
    30    27    28   1
    31    29    30   2
    32    29    31   2
    33    29    32   1
    34    32    33  ar
    35    32    35  ar
    36    33    34  ar
    37    34    40  ar
    38    35    36  ar
    39    36    37   1
    40    36    40  ar
    41    37    38   1
    42    38    39   2
    43    39    40   1
    44     3    41   1
    45     4    42   1
    46     5    43   1
    47     5    44   1
    48     6    45   1
    49     6    46   1
    50     7    47   1
    51     7    48   1
    52    11    49   1
    53    12    50   1
    54    13    51   1
    55    13    52   1
    56    15    53   1
    57    16    54   1
    58    17    55   1
    59    18    56   1
    60    19    57   1
    61    20    58   1
    62    21    59   1
    63    22    60   1
    64    22    61   1
    65    24    62   1
    66    24    63   1
    67    25    64   1
    68    26    65   1
    69    26    66   1
    70    26    67   1
    71    27    68   1
    72    27    69   1
    73    28    70   1
    74    28    71   1
    75    28    72   1
    76    33    73   1
    77    34    74   1
    78    35    75   1
    79    38    76   1
@<TRIPOS>SUBSTRUCTURE
     1  MOL      2

