@<TRIPOS>MOLECULE
4djr_ligand_026
    76    79
SMALL
GAST_HUCK
****
This file was generated by PARSER (from files_GN.cpp)

@<TRIPOS>ATOM
      1 O28        22.3256   30.5813   12.4126 O.2         1 MOL      -0.3971
      2 C27        22.1704   31.5175   13.1903 C.2         1 MOL       0.1764
      3 N29        23.1601   32.2119   13.6923 N.am        1 MOL      -0.2812
      4 C24        22.7732   33.1247   14.7074 C.3         1 MOL       0.0716
      5 C25        21.2219   33.0873   14.6210 C.3         1 MOL      -0.0105
      6 C26        20.8929   31.8673   13.7346 C.3         1 MOL       0.0394
      7 C22        23.3789   32.6832   16.0713 C.3         1 MOL       0.1003
      8 O23        22.5896   33.0767   17.2029 O.3         1 MOL      -0.2616
      9 C21        22.4099   34.2956   17.7774 C.2         1 MOL       0.3200
     10 O22        23.0445   35.3919   17.3022 O.2         1 MOL      -0.3775
     11 N20        21.5808   34.3165   18.8385 N.am        1 MOL      -0.2550
     12 C19        21.1479   35.4172   19.6463 C.3         1 MOL       0.0807
     13 C32        22.0909   36.6641   19.7679 C.3         1 MOL       0.0064
     14 C38        23.3994   36.5650   20.4825 C.ar        1 MOL      -0.0408
     15 C37        24.1247   35.3629   20.6832 C.ar        1 MOL      -0.0603
     16 C36        25.3865   35.3709   21.3090 C.ar        1 MOL      -0.0686
     17 C35        25.9292   36.5781   21.7916 C.ar        1 MOL      -0.0687
     18 C34        25.2184   37.7785   21.6184 C.ar        1 MOL      -0.0686
     19 C33        23.9681   37.7711   20.9743 C.ar        1 MOL      -0.0603
     20 C17        19.6682   35.8066   19.3083 C.3         1 MOL       0.0967
     21 O18        18.7835   34.7128   19.5852 O.3         1 MOL      -0.3877
     22 C16        19.4026   36.3648   17.8710 C.3         1 MOL       0.0579
     23 N11        18.6500   37.6070   17.8635 N.am        1 MOL      -0.2317
     24 C12        19.2498   38.8384   18.3681 C.3         1 MOL       0.0322
     25 C13        20.0113   39.7962   17.3720 C.3         1 MOL      -0.0270
     26 C14        20.5226   39.1400   16.0549 C.3         1 MOL      -0.0610
     27 C15        19.2645   41.1503   17.1029 C.3         1 MOL      -0.0518
     28 C18        18.0754   41.0964   16.1047 C.3         1 MOL      -0.0650
     29 S8         17.0031   37.5765   17.4466 S.o2        1 MOL       0.0679
     30 O10        16.4430   36.0964   17.6095 O.2         1 MOL      -0.1506
     31 O9         16.8453   37.9698   15.9152 O.2         1 MOL      -0.1506
     32 C5         15.9393   38.5226   18.4573 C.ar        1 MOL       0.1007
     33 C6         15.1867   39.5977   17.9209 C.ar        1 MOL      -0.0433
     34 C7         14.4054   40.4221   18.7581 C.ar        1 MOL      -0.0517
     35 C4         15.8653   38.2494   19.8447 C.ar        1 MOL      -0.0206
     36 C3         15.0737   39.0737   20.6636 C.ar        1 MOL       0.0595
     37 S1         14.7815   39.0448   22.3559 S.3         1 MOL       0.0026
     38 C1         13.7555   40.4292   22.3226 C.2         1 MOL       0.0809
     39 N1         13.6503   40.8811   21.0548 N.2         1 MOL      -0.2931
     40 C2         14.3546   40.1629   20.1431 C.ar        1 MOL       0.0375
     41 H1         24.0923   32.0398   13.4681 H           1 MOL       0.1855
     42 H2         23.1442   34.1223   14.4534 H           1 MOL       0.0584
     43 H3         20.8637   34.0060   14.1398 H           1 MOL       0.0313
     44 H4         20.7410   33.0041   15.6038 H           1 MOL       0.0313
     45 H5         20.5009   31.0418   14.3347 H           1 MOL       0.0503
     46 H6         20.1864   32.1326   12.9440 H           1 MOL       0.0503
     47 H7         24.3899   33.0951   16.1767 H           1 MOL       0.0634
     48 H8         23.4544   31.5870   16.1027 H           1 MOL       0.0634
     49 H9         21.1888   33.4564   19.0571 H           1 MOL       0.1873
     50 H10        21.1050   34.9881   20.6586 H           1 MOL       0.0604
     51 H11        21.5084   37.4227   20.3091 H           1 MOL       0.0449
     52 H12        22.3114   37.0556   18.7699 H           1 MOL       0.0449
     53 H13        23.7575   34.4713   20.3525 H           1 MOL       0.0557
     54 H14        25.9059   34.4953   21.4276 H           1 MOL       0.0599
     55 H15        26.8396   36.5821   22.2547 H           1 MOL       0.0559
     56 H16        25.6093   38.6594   21.9715 H           1 MOL       0.0599
     57 H17        23.4739   38.6614   20.8501 H           1 MOL       0.0557
     58 H18        19.3787   36.5737   20.0228 H           1 MOL       0.0634
     59 H19        19.2621   33.8870   19.3517 H           1 MOL       0.2100
     60 H20        18.9002   35.6053   17.2596 H           1 MOL       0.0504
     61 H21        20.3470   36.5514   17.3621 H           1 MOL       0.0504
     62 H22        19.9686   38.5538   19.1480 H           1 MOL       0.0481
     63 H23        18.4973   39.4193   18.9076 H           1 MOL       0.0481
     64 H24        20.9208   40.1060   17.9029 H           1 MOL       0.0314
     65 H25        20.9522   39.9003   15.3922 H           1 MOL       0.0233
     66 H26        19.7085   38.6346   15.5260 H           1 MOL       0.0233
     67 H27        21.3123   38.4133   16.2810 H           1 MOL       0.0233
     68 H28        19.9853   41.8768   16.7028 H           1 MOL       0.0266
     69 H29        18.9013   41.5527   18.0558 H           1 MOL       0.0266
     70 H30        17.5349   42.0545   16.1244 H           1 MOL       0.0230
     71 H31        17.3833   40.2905   16.3726 H           1 MOL       0.0230
     72 H32        18.4515   40.9301   15.0858 H           1 MOL       0.0230
     73 H33        15.2099   39.8002   16.9189 H           1 MOL       0.0580
     74 H34        13.8931   41.2156   18.3652 H           1 MOL       0.0584
     75 H35        16.3892   37.4741   20.2561 H           1 MOL       0.0592
     76 H36        13.2962   40.8368   23.1333 H           1 MOL       0.1260
@<TRIPOS>BOND
     1     1     2   2
     2     2     3  am
     3     2     6   1
     4     3     4   1
     5     4     5   1
     6     4     7   1
     7     5     6   1
     8     7     8   1
     9     8     9   1
    10     9    10   2
    11     9    11  am
    12    11    12   1
    13    12    13   1
    14    12    20   1
    15    13    14   1
    16    14    15  ar
    17    14    19  ar
    18    15    16  ar
    19    16    17  ar
    20    17    18  ar
    21    18    19  ar
    22    20    21   1
    23    20    22   1
    24    22    23   1
    25    23    24   1
    26    23    29  am
    27    24    25   1
    28    25    26   1
    29    25    27   1
    30    27    28   1
    31    29    30   2
    32    29    31   2
    33    29    32   1
    34    32    33  ar
    35    32    35  ar
    36    33    34  ar
    37    34    40  ar
    38    35    36  ar
    39    36    37   1
    40    36    40  ar
    41    37    38   1
    42    38    39   2
    43    39    40   1
    44     3    41   1
    45     4    42   1
    46     5    43   1
    47     5    44   1
    48     6    45   1
    49     6    46   1
    50     7    47   1
    51     7    48   1
    52    11    49   1
    53    12    50   1
    54    13    51   1
    55    13    52   1
    56    15    53   1
    57    16    54   1
    58    17    55   1
    59    18    56   1
    60    19    57   1
    61    20    58   1
    62    21    59   1
    63    22    60   1
    64    22    61   1
    65    24    62   1
    66    24    63   1
    67    25    64   1
    68    26    65   1
    69    26    66   1
    70    26    67   1
    71    27    68   1
    72    27    69   1
    73    28    70   1
    74    28    71   1
    75    28    72   1
    76    33    73   1
    77    34    74   1
    78    35    75   1
    79    38    76   1
@<TRIPOS>SUBSTRUCTURE
     1  MOL      2

