@<TRIPOS>MOLECULE
4djr_ligand_018
    76    79
SMALL
GAST_HUCK
****
This file was generated by PARSER (from files_GN.cpp)

@<TRIPOS>ATOM
      1 O28        12.3824   34.8830   17.2898 O.2         1 MOL      -0.3971
      2 C27        13.5871   35.0011   17.4551 C.2         1 MOL       0.1764
      3 N29        14.1193   36.0659   18.0021 N.am        1 MOL      -0.2812
      4 C24        15.5105   35.9518   18.2379 C.3         1 MOL       0.0716
      5 C25        15.8885   34.6508   17.4878 C.3         1 MOL      -0.0105
      6 C26        14.5383   33.9612   17.2004 C.3         1 MOL       0.0394
      7 C22        16.2648   37.2315   17.7899 C.3         1 MOL       0.1003
      8 O23        17.6852   37.0985   17.6389 O.3         1 MOL      -0.2616
      9 C21        18.5791   36.3371   18.3205 C.2         1 MOL       0.3200
     10 O22        18.1736   35.4350   19.2450 O.2         1 MOL      -0.3775
     11 N20        19.8844   36.5525   18.0499 N.am        1 MOL      -0.2550
     12 C19        21.0236   35.9127   18.6411 C.3         1 MOL       0.0807
     13 C32        21.1313   36.2126   20.1787 C.3         1 MOL       0.0064
     14 C38        22.5189   36.2574   20.7174 C.ar        1 MOL      -0.0408
     15 C37        23.2936   37.4390   20.5945 C.ar        1 MOL      -0.0603
     16 C36        24.5974   37.5079   21.1094 C.ar        1 MOL      -0.0686
     17 C35        25.1633   36.3925   21.7510 C.ar        1 MOL      -0.0687
     18 C34        24.4083   35.2125   21.8927 C.ar        1 MOL      -0.0686
     19 C33        23.0999   35.1469   21.3866 C.ar        1 MOL      -0.0603
     20 C17        21.0725   34.3972   18.2594 C.3         1 MOL       0.0967
     21 O18        21.8729   33.7288   19.2355 O.3         1 MOL      -0.3877
     22 C16        21.6723   34.1203   16.8418 C.3         1 MOL       0.0579
     23 N11        21.5331   32.8163   16.1935 N.am        1 MOL      -0.2317
     24 C12        21.6873   31.5418   16.8885 C.3         1 MOL       0.0322
     25 C13        20.5499   30.4681   16.7853 C.3         1 MOL      -0.0270
     26 C14        19.1274   31.0911   16.8546 C.3         1 MOL      -0.0610
     27 C15        20.7440   29.4911   15.5822 C.3         1 MOL      -0.0518
     28 C18        19.8256   28.2500   15.5587 C.3         1 MOL      -0.0650
     29 S8         21.7291   32.8141   14.4968 S.o2        1 MOL       0.0679
     30 O10        23.0873   32.0877   14.0983 O.2         1 MOL      -0.1506
     31 O9         22.0097   34.2939   13.9698 O.2         1 MOL      -0.1506
     32 C5         20.3853   32.2405   13.5464 C.ar        1 MOL       0.1007
     33 C6         19.1009   32.8172   13.7209 C.ar        1 MOL      -0.0433
     34 C7         17.9594   32.2117   13.1580 C.ar        1 MOL      -0.0517
     35 C4         20.5318   31.1088   12.7108 C.ar        1 MOL      -0.0206
     36 C3         19.3805   30.5037   12.1898 C.ar        1 MOL       0.0595
     37 S1         19.1776   29.0540   11.2948 S.3         1 MOL       0.0026
     38 C1         17.4641   29.1920   11.2125 C.2         1 MOL       0.0809
     39 N1         17.0784   30.3076   11.8706 N.2         1 MOL      -0.2931
     40 C2         18.0987   31.0285   12.4099 C.ar        1 MOL       0.0375
     41 H1         13.5864   36.8091   18.3242 H           1 MOL       0.1855
     42 H2         15.6449   35.8140   19.3146 H           1 MOL       0.0584
     43 H3         16.5378   34.0133   18.0962 H           1 MOL       0.0313
     44 H4         16.3966   34.8728   16.5437 H           1 MOL       0.0313
     45 H5         14.4823   33.6181   16.1627 H           1 MOL       0.0503
     46 H6         14.3622   33.1237   17.8837 H           1 MOL       0.0503
     47 H7         16.0730   38.0222   18.5193 H           1 MOL       0.0634
     48 H8         15.8780   37.5653   16.8242 H           1 MOL       0.0634
     49 H9         20.0722   37.2442   17.3962 H           1 MOL       0.1873
     50 H10        21.8838   36.3801   18.1564 H           1 MOL       0.0604
     51 H11        20.5362   35.4766   20.7260 H           1 MOL       0.0449
     52 H12        20.6799   37.1844   20.3878 H           1 MOL       0.0449
     53 H13        22.8985   38.2640   20.1350 H           1 MOL       0.0557
     54 H14        25.1422   38.3700   21.0135 H           1 MOL       0.0599
     55 H15        26.1135   36.4410   22.1240 H           1 MOL       0.0559
     56 H16        24.8158   34.4061   22.3739 H           1 MOL       0.0599
     57 H17        22.5623   34.2859   21.5170 H           1 MOL       0.0557
     58 H18        20.0610   33.9868   18.2917 H           1 MOL       0.0634
     59 H19        21.2478   33.1088   19.6813 H           1 MOL       0.2100
     60 H20        22.7455   34.3413   16.9042 H           1 MOL       0.0504
     61 H21        21.2249   34.8584   16.1655 H           1 MOL       0.0504
     62 H22        21.7929   31.7040   17.9507 H           1 MOL       0.0481
     63 H23        22.6447   31.1030   16.5989 H           1 MOL       0.0481
     64 H24        20.6371   29.8438   17.6747 H           1 MOL       0.0314
     65 H25        18.3784   30.3272   17.0773 H           1 MOL       0.0233
     66 H26        18.8560   31.5570   15.9076 H           1 MOL       0.0233
     67 H27        19.0659   31.8557   17.6307 H           1 MOL       0.0233
     68 H28        21.7805   29.1380   15.5622 H           1 MOL       0.0266
     69 H29        20.5733   30.0156   14.6612 H           1 MOL       0.0266
     70 H30        20.1124   27.5972   14.7308 H           1 MOL       0.0230
     71 H31        18.7854   28.5414   15.4149 H           1 MOL       0.0230
     72 H32        19.9265   27.6972   16.4908 H           1 MOL       0.0230
     73 H33        18.9832   33.6519   14.3047 H           1 MOL       0.0580
     74 H34        17.0360   32.6246   13.2991 H           1 MOL       0.0584
     75 H35        21.4432   30.6776   12.5540 H           1 MOL       0.0592
     76 H36        16.8344   28.5282   10.7641 H           1 MOL       0.1260
@<TRIPOS>BOND
     1     1     2   2
     2     2     3  am
     3     2     6   1
     4     3     4   1
     5     4     5   1
     6     4     7   1
     7     5     6   1
     8     7     8   1
     9     8     9   1
    10     9    10   2
    11     9    11  am
    12    11    12   1
    13    12    13   1
    14    12    20   1
    15    13    14   1
    16    14    15  ar
    17    14    19  ar
    18    15    16  ar
    19    16    17  ar
    20    17    18  ar
    21    18    19  ar
    22    20    21   1
    23    20    22   1
    24    22    23   1
    25    23    24   1
    26    23    29  am
    27    24    25   1
    28    25    26   1
    29    25    27   1
    30    27    28   1
    31    29    30   2
    32    29    31   2
    33    29    32   1
    34    32    33  ar
    35    32    35  ar
    36    33    34  ar
    37    34    40  ar
    38    35    36  ar
    39    36    37   1
    40    36    40  ar
    41    37    38   1
    42    38    39   2
    43    39    40   1
    44     3    41   1
    45     4    42   1
    46     5    43   1
    47     5    44   1
    48     6    45   1
    49     6    46   1
    50     7    47   1
    51     7    48   1
    52    11    49   1
    53    12    50   1
    54    13    51   1
    55    13    52   1
    56    15    53   1
    57    16    54   1
    58    17    55   1
    59    18    56   1
    60    19    57   1
    61    20    58   1
    62    21    59   1
    63    22    60   1
    64    22    61   1
    65    24    62   1
    66    24    63   1
    67    25    64   1
    68    26    65   1
    69    26    66   1
    70    26    67   1
    71    27    68   1
    72    27    69   1
    73    28    70   1
    74    28    71   1
    75    28    72   1
    76    33    73   1
    77    34    74   1
    78    35    75   1
    79    38    76   1
@<TRIPOS>SUBSTRUCTURE
     1  MOL      2

