@<TRIPOS>MOLECULE
4djr_ligand_029
    76    79
SMALL
GAST_HUCK
****
This file was generated by PARSER (from files_GN.cpp)

@<TRIPOS>ATOM
      1 O28        21.2315   32.6153   13.3509 O.2         1 MOL      -0.3971
      2 C27        22.1536   32.6647   14.1510 C.2         1 MOL       0.1764
      3 N29        22.1578   31.9651   15.2505 N.am        1 MOL      -0.2812
      4 C24        23.3093   32.1547   16.0505 C.3         1 MOL       0.0716
      5 C25        24.1655   33.1558   15.2300 C.3         1 MOL      -0.0105
      6 C26        23.3006   33.5052   13.9977 C.3         1 MOL       0.0394
      7 C22        22.9408   32.6307   17.4762 C.3         1 MOL       0.1003
      8 O23        22.2343   33.8756   17.4293 O.3         1 MOL      -0.2616
      9 C21        21.6919   34.5286   18.4858 C.2         1 MOL       0.3200
     10 O22        21.7563   34.0102   19.7342 O.2         1 MOL      -0.3775
     11 N20        21.0422   35.6817   18.2120 N.am        1 MOL      -0.2550
     12 C19        20.2542   36.4377   19.1355 C.3         1 MOL       0.0807
     13 C32        20.5841   37.9622   19.0057 C.3         1 MOL       0.0064
     14 C38        21.8605   38.4765   19.6009 C.ar        1 MOL      -0.0408
     15 C37        22.0815   39.8766   19.5965 C.ar        1 MOL      -0.0603
     16 C36        23.2341   40.4417   20.1763 C.ar        1 MOL      -0.0686
     17 C35        24.2006   39.6145   20.7689 C.ar        1 MOL      -0.0687
     18 C34        24.0120   38.2245   20.7798 C.ar        1 MOL      -0.0686
     19 C33        22.8573   37.6654   20.2025 C.ar        1 MOL      -0.0603
     20 C17        18.7477   36.0779   18.9346 C.3         1 MOL       0.0967
     21 O18        18.4764   34.8171   19.5646 O.3         1 MOL      -0.3877
     22 C16        18.1946   36.0130   17.4810 C.3         1 MOL       0.0579
     23 N11        16.7696   35.7643   17.3326 N.am        1 MOL      -0.2317
     24 C12        15.7707   36.2776   18.2608 C.3         1 MOL       0.0322
     25 C13        15.3968   37.8176   18.2738 C.3         1 MOL      -0.0270
     26 C14        15.5859   38.4652   19.6844 C.3         1 MOL      -0.0610
     27 C15        15.9393   38.7204   17.1133 C.3         1 MOL      -0.0518
     28 C18        17.2201   39.5644   17.3629 C.3         1 MOL      -0.0650
     29 S8         16.2725   35.0130   15.8884 S.o2        1 MOL       0.0679
     30 O10        16.3972   36.0147   14.6586 O.2         1 MOL      -0.1506
     31 O9         14.7429   34.5653   15.9312 O.2         1 MOL      -0.1506
     32 C5         17.1051   33.5142   15.5581 C.ar        1 MOL       0.1007
     33 C6         17.4623   32.6539   16.6234 C.ar        1 MOL      -0.0433
     34 C7         18.1949   31.4709   16.3833 C.ar        1 MOL      -0.0517
     35 C4         17.4427   33.1639   14.2319 C.ar        1 MOL      -0.0206
     36 C3         18.1475   31.9710   14.0097 C.ar        1 MOL       0.0595
     37 S1         18.7068   31.2479   12.5596 S.3         1 MOL       0.0026
     38 C1         19.4537   29.9203   13.3577 C.2         1 MOL       0.0809
     39 N1         19.2511   30.0356   14.6908 N.2         1 MOL      -0.2931
     40 C2         18.5449   31.1315   15.0638 C.ar        1 MOL       0.0375
     41 H1         21.4421   31.3556   15.4894 H           1 MOL       0.1855
     42 H2         23.8272   31.1959   16.1227 H           1 MOL       0.0584
     43 H3         25.1032   32.6886   14.9156 H           1 MOL       0.0313
     44 H4         24.4097   34.0610   15.7939 H           1 MOL       0.0313
     45 H5         22.9960   34.5552   14.0097 H           1 MOL       0.0503
     46 H6         23.8255   33.2817   13.0654 H           1 MOL       0.0503
     47 H7         23.8541   32.7577   18.0654 H           1 MOL       0.0634
     48 H8         22.3160   31.8742   17.9620 H           1 MOL       0.0634
     49 H9         21.0144   35.9565   17.2825 H           1 MOL       0.1873
     50 H10        20.4868   36.1600   20.1707 H           1 MOL       0.0604
     51 H11        19.7805   38.5179   19.4948 H           1 MOL       0.0449
     52 H12        20.5685   38.2340   17.9474 H           1 MOL       0.0449
     53 H13        21.3901   40.5065   19.1760 H           1 MOL       0.0557
     54 H14        23.3673   41.4562   20.1650 H           1 MOL       0.0599
     55 H15        25.0339   40.0235   21.1890 H           1 MOL       0.0559
     56 H16        24.7138   37.6177   21.2113 H           1 MOL       0.0599
     57 H17        22.7578   36.6520   20.2375 H           1 MOL       0.0557
     58 H18        18.1748   36.8277   19.4774 H           1 MOL       0.0634
     59 H19        19.0997   34.1665   19.1740 H           1 MOL       0.2100
     60 H20        18.7500   35.2115   16.9902 H           1 MOL       0.0504
     61 H21        18.4483   36.9282   16.9500 H           1 MOL       0.0504
     62 H22        16.0592   35.9593   19.2641 H           1 MOL       0.0481
     63 H23        14.8385   35.7241   18.1027 H           1 MOL       0.0481
     64 H24        14.3076   37.8301   18.1321 H           1 MOL       0.0314
     65 H25        15.1797   39.4796   19.6871 H           1 MOL       0.0233
     66 H26        16.6405   38.5186   19.9584 H           1 MOL       0.0233
     67 H27        15.0609   37.8794   20.4442 H           1 MOL       0.0233
     68 H28        15.1587   39.4407   16.8471 H           1 MOL       0.0266
     69 H29        16.0993   38.1026   16.2327 H           1 MOL       0.0266
     70 H30        17.6035   39.9399   16.4082 H           1 MOL       0.0230
     71 H31        17.9904   38.9646   17.8454 H           1 MOL       0.0230
     72 H32        16.9886   40.4164   18.0106 H           1 MOL       0.0230
     73 H33        17.2045   32.8847   17.5854 H           1 MOL       0.0580
     74 H34        18.4663   30.8679   17.1619 H           1 MOL       0.0584
     75 H35        17.1961   33.7591   13.4398 H           1 MOL       0.0592
     76 H36        19.9639   29.1658   12.8994 H           1 MOL       0.1260
@<TRIPOS>BOND
     1     1     2   2
     2     2     3  am
     3     2     6   1
     4     3     4   1
     5     4     5   1
     6     4     7   1
     7     5     6   1
     8     7     8   1
     9     8     9   1
    10     9    10   2
    11     9    11  am
    12    11    12   1
    13    12    13   1
    14    12    20   1
    15    13    14   1
    16    14    15  ar
    17    14    19  ar
    18    15    16  ar
    19    16    17  ar
    20    17    18  ar
    21    18    19  ar
    22    20    21   1
    23    20    22   1
    24    22    23   1
    25    23    24   1
    26    23    29  am
    27    24    25   1
    28    25    26   1
    29    25    27   1
    30    27    28   1
    31    29    30   2
    32    29    31   2
    33    29    32   1
    34    32    33  ar
    35    32    35  ar
    36    33    34  ar
    37    34    40  ar
    38    35    36  ar
    39    36    37   1
    40    36    40  ar
    41    37    38   1
    42    38    39   2
    43    39    40   1
    44     3    41   1
    45     4    42   1
    46     5    43   1
    47     5    44   1
    48     6    45   1
    49     6    46   1
    50     7    47   1
    51     7    48   1
    52    11    49   1
    53    12    50   1
    54    13    51   1
    55    13    52   1
    56    15    53   1
    57    16    54   1
    58    17    55   1
    59    18    56   1
    60    19    57   1
    61    20    58   1
    62    21    59   1
    63    22    60   1
    64    22    61   1
    65    24    62   1
    66    24    63   1
    67    25    64   1
    68    26    65   1
    69    26    66   1
    70    26    67   1
    71    27    68   1
    72    27    69   1
    73    28    70   1
    74    28    71   1
    75    28    72   1
    76    33    73   1
    77    34    74   1
    78    35    75   1
    79    38    76   1
@<TRIPOS>SUBSTRUCTURE
     1  MOL      2

