@<TRIPOS>MOLECULE
4djr_ligand_086
    76    79
SMALL
GAST_HUCK
****
This file was generated by PARSER (from files_GN.cpp)

@<TRIPOS>ATOM
      1 O28        17.6856   40.3849   15.9158 O.2         1 MOL      -0.3971
      2 C27        18.8374   40.6692   15.6270 C.2         1 MOL       0.1764
      3 N29        19.6259   39.8052   15.0446 N.am        1 MOL      -0.2812
      4 C24        20.9245   40.2853   14.7528 C.3         1 MOL       0.0716
      5 C25        20.8650   41.7628   15.2426 C.3         1 MOL      -0.0105
      6 C26        19.4711   41.9251   15.8955 C.3         1 MOL       0.0394
      7 C22        22.0103   39.3965   15.4253 C.3         1 MOL       0.1003
      8 O23        21.5811   38.0230   15.3810 O.3         1 MOL      -0.2616
      9 C21        21.3771   37.1846   16.4298 C.2         1 MOL       0.3200
     10 O22        21.6760   37.5644   17.6947 O.2         1 MOL      -0.3775
     11 N20        20.7646   36.0154   16.1502 N.am        1 MOL      -0.2550
     12 C19        20.3022   35.0252   17.0899 C.3         1 MOL       0.0807
     13 C32        21.5153   34.3475   17.8051 C.3         1 MOL       0.0064
     14 C38        22.4203   33.6424   16.8577 C.ar        1 MOL      -0.0408
     15 C37        22.3104   32.2423   16.6562 C.ar        1 MOL      -0.0603
     16 C36        23.1222   31.5846   15.7160 C.ar        1 MOL      -0.0686
     17 C35        24.0745   32.3101   14.9716 C.ar        1 MOL      -0.0687
     18 C34        24.1910   33.7013   15.1600 C.ar        1 MOL      -0.0686
     19 C33        23.3779   34.3593   16.0990 C.ar        1 MOL      -0.0603
     20 C17        19.1972   35.5405   18.0763 C.3         1 MOL       0.0967
     21 O18        18.4248   34.4403   18.5868 O.3         1 MOL      -0.3877
     22 C16        18.2521   36.6259   17.4506 C.3         1 MOL       0.0579
     23 N11        16.9031   36.6025   17.9550 N.am        1 MOL      -0.2317
     24 C12        16.5898   37.3359   19.1623 C.3         1 MOL       0.0322
     25 C13        15.3908   38.3390   19.0798 C.3         1 MOL      -0.0270
     26 C14        15.0860   38.9157   20.4911 C.3         1 MOL      -0.0610
     27 C15        15.5525   39.4440   17.9847 C.3         1 MOL      -0.0518
     28 C18        16.2847   40.7414   18.4156 C.3         1 MOL      -0.0650
     29 S8         15.7871   35.4649   17.3578 S.o2        1 MOL       0.0679
     30 O10        14.6384   36.2309   16.5645 O.2         1 MOL      -0.1506
     31 O9         15.0263   34.8899   18.6361 O.2         1 MOL      -0.1506
     32 C5         16.1976   34.0413   16.4105 C.ar        1 MOL       0.1007
     33 C6         15.4832   32.8206   16.6027 C.ar        1 MOL      -0.0433
     34 C7         15.7514   31.6798   15.8159 C.ar        1 MOL      -0.0517
     35 C4         17.1574   34.0931   15.3668 C.ar        1 MOL      -0.0206
     36 C3         17.4339   32.9385   14.6247 C.ar        1 MOL       0.0595
     37 S1         18.5513   32.6825   13.3482 S.3         1 MOL       0.0026
     38 C1         18.0710   31.0487   13.1013 C.2         1 MOL       0.0809
     39 N1         17.0909   30.7210   13.9761 N.2         1 MOL      -0.2931
     40 C2         16.7399   31.7282   14.8139 C.ar        1 MOL       0.0375
     41 H1         19.3411   38.8994   14.8369 H           1 MOL       0.1855
     42 H2         21.0517   40.2547   13.6633 H           1 MOL       0.0584
     43 H3         20.9639   42.4426   14.3919 H           1 MOL       0.0313
     44 H4         21.6555   41.9951   15.9628 H           1 MOL       0.0313
     45 H5         19.5494   42.0791   16.9760 H           1 MOL       0.0503
     46 H6         18.9058   42.7410   15.4428 H           1 MOL       0.0503
     47 H7         22.1902   39.7261   16.4569 H           1 MOL       0.0634
     48 H8         22.9467   39.4951   14.8716 H           1 MOL       0.0634
     49 H9         20.5232   35.8739   15.2164 H           1 MOL       0.1873
     50 H10        19.8265   34.2523   16.4780 H           1 MOL       0.0604
     51 H11        21.1392   33.6303   18.5361 H           1 MOL       0.0449
     52 H12        22.0850   35.0875   18.3719 H           1 MOL       0.0449
     53 H13        21.6211   31.6972   17.1794 H           1 MOL       0.0557
     54 H14        23.0252   30.5754   15.5696 H           1 MOL       0.0599
     55 H15        24.6626   31.8324   14.2874 H           1 MOL       0.0559
     56 H16        24.8733   34.2295   14.6140 H           1 MOL       0.0599
     57 H17        23.4865   35.3699   16.2136 H           1 MOL       0.0557
     58 H18        19.6928   35.9915   18.9436 H           1 MOL       0.0634
     59 H19        19.0559   33.7104   18.7652 H           1 MOL       0.2100
     60 H20        18.2230   36.5616   16.3691 H           1 MOL       0.0504
     61 H21        18.6867   37.6111   17.6444 H           1 MOL       0.0504
     62 H22        17.4586   37.9027   19.5065 H           1 MOL       0.0481
     63 H23        16.3876   36.5956   19.9384 H           1 MOL       0.0481
     64 H24        14.5094   37.7576   18.7959 H           1 MOL       0.0314
     65 H25        14.2794   39.6491   20.4356 H           1 MOL       0.0233
     66 H26        15.9720   39.3954   20.9199 H           1 MOL       0.0233
     67 H27        14.7732   38.1164   21.1668 H           1 MOL       0.0233
     68 H28        14.5531   39.7291   17.6433 H           1 MOL       0.0266
     69 H29        16.0763   39.0142   17.1237 H           1 MOL       0.0266
     70 H30        16.3401   41.4272   17.5698 H           1 MOL       0.0230
     71 H31        17.2967   40.5141   18.7552 H           1 MOL       0.0230
     72 H32        15.7408   41.2433   19.2184 H           1 MOL       0.0230
     73 H33        14.7375   32.7559   17.3061 H           1 MOL       0.0580
     74 H34        15.2171   30.8163   15.9678 H           1 MOL       0.0584
     75 H35        17.6480   34.9468   15.1098 H           1 MOL       0.0592
     76 H36        18.4529   30.4262   12.3966 H           1 MOL       0.1260
@<TRIPOS>BOND
     1     1     2   2
     2     2     3  am
     3     2     6   1
     4     3     4   1
     5     4     5   1
     6     4     7   1
     7     5     6   1
     8     7     8   1
     9     8     9   1
    10     9    10   2
    11     9    11  am
    12    11    12   1
    13    12    13   1
    14    12    20   1
    15    13    14   1
    16    14    15  ar
    17    14    19  ar
    18    15    16  ar
    19    16    17  ar
    20    17    18  ar
    21    18    19  ar
    22    20    21   1
    23    20    22   1
    24    22    23   1
    25    23    24   1
    26    23    29  am
    27    24    25   1
    28    25    26   1
    29    25    27   1
    30    27    28   1
    31    29    30   2
    32    29    31   2
    33    29    32   1
    34    32    33  ar
    35    32    35  ar
    36    33    34  ar
    37    34    40  ar
    38    35    36  ar
    39    36    37   1
    40    36    40  ar
    41    37    38   1
    42    38    39   2
    43    39    40   1
    44     3    41   1
    45     4    42   1
    46     5    43   1
    47     5    44   1
    48     6    45   1
    49     6    46   1
    50     7    47   1
    51     7    48   1
    52    11    49   1
    53    12    50   1
    54    13    51   1
    55    13    52   1
    56    15    53   1
    57    16    54   1
    58    17    55   1
    59    18    56   1
    60    19    57   1
    61    20    58   1
    62    21    59   1
    63    22    60   1
    64    22    61   1
    65    24    62   1
    66    24    63   1
    67    25    64   1
    68    26    65   1
    69    26    66   1
    70    26    67   1
    71    27    68   1
    72    27    69   1
    73    28    70   1
    74    28    71   1
    75    28    72   1
    76    33    73   1
    77    34    74   1
    78    35    75   1
    79    38    76   1
@<TRIPOS>SUBSTRUCTURE
     1  MOL      2

