@<TRIPOS>MOLECULE
4djr_ligand_016
    76    79
SMALL
GAST_HUCK
****
This file was generated by PARSER (from files_GN.cpp)

@<TRIPOS>ATOM
      1 O28        22.4443   30.4704   12.5321 O.2         1 MOL      -0.3971
      2 C27        22.3701   31.4692   13.2352 C.2         1 MOL       0.1764
      3 N29        23.4227   32.0909   13.7090 N.am        1 MOL      -0.2812
      4 C24        23.1194   33.1112   14.6470 C.3         1 MOL       0.0716
      5 C25        21.5914   33.2798   14.4447 C.3         1 MOL      -0.0105
      6 C26        21.1320   31.9916   13.7310 C.3         1 MOL       0.0394
      7 C22        23.6023   32.6781   16.0683 C.3         1 MOL       0.1003
      8 O23        22.7492   33.0468   17.1579 O.3         1 MOL      -0.2616
      9 C21        22.4693   34.2662   17.6843 C.2         1 MOL       0.3200
     10 O22        23.0191   35.3839   17.1470 O.2         1 MOL      -0.3775
     11 N20        21.5765   34.2675   18.6989 N.am        1 MOL      -0.2550
     12 C19        20.9617   35.3586   19.4028 C.3         1 MOL       0.0807
     13 C32        21.7783   36.6835   19.5749 C.3         1 MOL       0.0064
     14 C38        23.0916   36.6413   20.3001 C.ar        1 MOL      -0.0408
     15 C37        23.6286   37.8533   20.8094 C.ar        1 MOL      -0.0603
     16 C36        24.8359   37.8744   21.5356 C.ar        1 MOL      -0.0686
     17 C35        25.5497   36.6843   21.7505 C.ar        1 MOL      -0.0687
     18 C34        25.0533   35.4703   21.2448 C.ar        1 MOL      -0.0686
     19 C33        23.8396   35.4558   20.5336 C.ar        1 MOL      -0.0603
     20 C17        19.4832   35.5587   18.8966 C.3         1 MOL       0.0967
     21 O18        18.6438   34.6102   19.5449 O.3         1 MOL      -0.3877
     22 C16        19.2581   35.4375   17.3526 C.3         1 MOL       0.0579
     23 N11        17.8820   35.3980   16.8725 N.am        1 MOL      -0.2317
     24 C12        17.5474   34.5631   15.7213 C.3         1 MOL       0.0322
     25 C13        17.1371   33.0706   15.9986 C.3         1 MOL      -0.0270
     26 C14        18.2458   32.2641   16.7293 C.3         1 MOL      -0.0610
     27 C15        15.7624   32.9353   16.7284 C.3         1 MOL      -0.0518
     28 C18        14.9554   31.6541   16.4175 C.3         1 MOL      -0.0650
     29 S8         16.7689   36.5821   17.3842 S.o2        1 MOL       0.0679
     30 O10        16.4045   36.3928   18.9222 O.2         1 MOL      -0.1506
     31 O9         15.3423   36.2175   16.7796 O.2         1 MOL      -0.1506
     32 C5         16.9234   38.2915   17.0281 C.ar        1 MOL       0.1007
     33 C6         15.7605   39.1035   17.0603 C.ar        1 MOL      -0.0433
     34 C7         15.8269   40.4793   16.7552 C.ar        1 MOL      -0.0517
     35 C4         18.1699   38.8860   16.7164 C.ar        1 MOL      -0.0206
     36 C3         18.2106   40.2575   16.4167 C.ar        1 MOL       0.0595
     37 S1         19.5257   41.2789   15.9748 S.3         1 MOL       0.0026
     38 C1         18.5384   42.6790   15.8222 C.2         1 MOL       0.0809
     39 N1         17.2579   42.3636   16.1045 N.2         1 MOL      -0.2931
     40 C2         17.0615   41.0582   16.4273 C.ar        1 MOL       0.0375
     41 H1         24.3314   31.8016   13.5413 H           1 MOL       0.1855
     42 H2         23.6292   34.0361   14.3513 H           1 MOL       0.0584
     43 H3         21.3965   34.1424   13.7983 H           1 MOL       0.0313
     44 H4         21.0678   33.4329   15.3857 H           1 MOL       0.0313
     45 H5         20.6722   31.2871   14.4293 H           1 MOL       0.0503
     46 H6         20.4398   32.2111   12.9132 H           1 MOL       0.0503
     47 H7         24.5964   33.0892   16.2482 H           1 MOL       0.0634
     48 H8         23.6769   31.5910   16.1180 H           1 MOL       0.0634
     49 H9         21.2248   33.3898   18.9205 H           1 MOL       0.1873
     50 H10        20.8810   34.9838   20.4286 H           1 MOL       0.0604
     51 H11        21.1352   37.3558   20.1509 H           1 MOL       0.0449
     52 H12        21.9330   37.1656   18.6063 H           1 MOL       0.0449
     53 H13        23.1226   38.7379   20.6796 H           1 MOL       0.0557
     54 H14        25.1873   38.7541   21.9199 H           1 MOL       0.0599
     55 H15        26.4191   36.6948   22.2822 H           1 MOL       0.0559
     56 H16        25.5570   34.5986   21.4063 H           1 MOL       0.0599
     57 H17        23.5084   34.5533   20.1915 H           1 MOL       0.0557
     58 H18        19.1418   36.5439   19.2179 H           1 MOL       0.0634
     59 H19        19.1055   33.7417   19.4718 H           1 MOL       0.2100
     60 H20        19.7555   34.5219   17.0273 H           1 MOL       0.0504
     61 H21        19.7794   36.2595   16.8587 H           1 MOL       0.0504
     62 H22        18.4004   34.5431   15.0329 H           1 MOL       0.0481
     63 H23        16.7500   35.0284   15.1359 H           1 MOL       0.0481
     64 H24        17.0196   32.6036   15.0127 H           1 MOL       0.0314
     65 H25        18.0296   31.1945   16.7025 H           1 MOL       0.0233
     66 H26        18.3291   32.5761   17.7701 H           1 MOL       0.0233
     67 H27        19.2044   32.4082   16.2400 H           1 MOL       0.0233
     68 H28        15.1234   33.7705   16.4287 H           1 MOL       0.0266
     69 H29        15.9111   33.0035   17.8131 H           1 MOL       0.0266
     70 H30        14.0164   31.6690   16.9746 H           1 MOL       0.0230
     71 H31        15.5018   30.7595   16.7065 H           1 MOL       0.0230
     72 H32        14.7241   31.5960   15.3520 H           1 MOL       0.0230
     73 H33        14.8474   38.7017   17.3033 H           1 MOL       0.0580
     74 H34        14.9771   41.0473   16.7730 H           1 MOL       0.0584
     75 H35        19.0378   38.3420   16.6989 H           1 MOL       0.0592
     76 H36        18.8599   43.6081   15.5530 H           1 MOL       0.1260
@<TRIPOS>BOND
     1     1     2   2
     2     2     3  am
     3     2     6   1
     4     3     4   1
     5     4     5   1
     6     4     7   1
     7     5     6   1
     8     7     8   1
     9     8     9   1
    10     9    10   2
    11     9    11  am
    12    11    12   1
    13    12    13   1
    14    12    20   1
    15    13    14   1
    16    14    15  ar
    17    14    19  ar
    18    15    16  ar
    19    16    17  ar
    20    17    18  ar
    21    18    19  ar
    22    20    21   1
    23    20    22   1
    24    22    23   1
    25    23    24   1
    26    23    29  am
    27    24    25   1
    28    25    26   1
    29    25    27   1
    30    27    28   1
    31    29    30   2
    32    29    31   2
    33    29    32   1
    34    32    33  ar
    35    32    35  ar
    36    33    34  ar
    37    34    40  ar
    38    35    36  ar
    39    36    37   1
    40    36    40  ar
    41    37    38   1
    42    38    39   2
    43    39    40   1
    44     3    41   1
    45     4    42   1
    46     5    43   1
    47     5    44   1
    48     6    45   1
    49     6    46   1
    50     7    47   1
    51     7    48   1
    52    11    49   1
    53    12    50   1
    54    13    51   1
    55    13    52   1
    56    15    53   1
    57    16    54   1
    58    17    55   1
    59    18    56   1
    60    19    57   1
    61    20    58   1
    62    21    59   1
    63    22    60   1
    64    22    61   1
    65    24    62   1
    66    24    63   1
    67    25    64   1
    68    26    65   1
    69    26    66   1
    70    26    67   1
    71    27    68   1
    72    27    69   1
    73    28    70   1
    74    28    71   1
    75    28    72   1
    76    33    73   1
    77    34    74   1
    78    35    75   1
    79    38    76   1
@<TRIPOS>SUBSTRUCTURE
     1  MOL      2

