@<TRIPOS>MOLECULE
4djr_ligand_078
    76    79
SMALL
GAST_HUCK
****
This file was generated by PARSER (from files_GN.cpp)

@<TRIPOS>ATOM
      1 O28        14.1165   41.5453   20.1705 O.2         1 MOL      -0.3971
      2 C27        14.8409   40.8802   19.4424 C.2         1 MOL       0.1764
      3 N29        14.5098   39.6892   19.0050 N.am        1 MOL      -0.2812
      4 C24        15.4723   39.0950   18.1547 C.3         1 MOL       0.0716
      5 C25        16.6222   40.1356   18.1239 C.3         1 MOL      -0.0105
      6 C26        16.1327   41.3090   19.0031 C.3         1 MOL       0.0394
      7 C22        15.8833   37.6888   18.6577 C.3         1 MOL       0.1003
      8 O23        16.7392   37.0864   17.6816 O.3         1 MOL      -0.2616
      9 C21        17.2358   35.8238   17.6986 C.2         1 MOL       0.3200
     10 O22        16.9619   34.9718   18.7178 O.2         1 MOL      -0.3775
     11 N20        17.9824   35.4543   16.6344 N.am        1 MOL      -0.2550
     12 C19        18.4805   34.1357   16.3660 C.3         1 MOL       0.0807
     13 C32        17.2780   33.2621   15.8705 C.3         1 MOL       0.0064
     14 C38        17.6372   32.0088   15.1480 C.ar        1 MOL      -0.0408
     15 C37        18.1705   30.8943   15.8420 C.ar        1 MOL      -0.0603
     16 C36        18.6228   29.7624   15.1370 C.ar        1 MOL      -0.0686
     17 C35        18.5497   29.7258   13.7349 C.ar        1 MOL      -0.0687
     18 C34        18.0106   30.8166   13.0325 C.ar        1 MOL      -0.0686
     19 C33        17.5508   31.9482   13.7340 C.ar        1 MOL      -0.0603
     20 C17        19.6739   34.2454   15.3603 C.3         1 MOL       0.0967
     21 O18        20.2970   32.9598   15.2649 O.3         1 MOL      -0.3877
     22 C16        20.7962   35.3050   15.6400 C.3         1 MOL       0.0579
     23 N11        21.8982   34.8818   16.4791 N.am        1 MOL      -0.2317
     24 C12        23.2327   34.6491   15.9354 C.3         1 MOL       0.0322
     25 C13        23.5715   33.2286   15.3638 C.3         1 MOL      -0.0270
     26 C14        23.2562   32.1199   16.4120 C.3         1 MOL      -0.0610
     27 C15        23.0389   33.0081   13.9004 C.3         1 MOL      -0.0518
     28 C18        22.7617   31.5512   13.4508 C.3         1 MOL      -0.0650
     29 S8         21.7272   34.9622   18.1723 S.o2        1 MOL       0.0679
     30 O10        22.0890   33.5664   18.8433 O.2         1 MOL      -0.1506
     31 O9         20.2196   35.2425   18.5995 O.2         1 MOL      -0.1506
     32 C5         22.5500   36.2668   18.9836 C.ar        1 MOL       0.1007
     33 C6         22.9242   36.1179   20.3422 C.ar        1 MOL      -0.0433
     34 C7         23.5296   37.1820   21.0385 C.ar        1 MOL      -0.0517
     35 C4         22.7661   37.4985   18.3223 C.ar        1 MOL      -0.0206
     36 C3         23.3749   38.5398   19.0376 C.ar        1 MOL       0.0595
     37 S1         23.7985   40.1315   18.5675 S.3         1 MOL       0.0026
     38 C1         24.4599   40.5514   20.1001 C.2         1 MOL       0.0809
     39 N1         24.3446   39.4938   20.9354 N.2         1 MOL      -0.2931
     40 C2         23.7623   38.3988   20.3790 C.ar        1 MOL       0.0375
     41 H1         13.6729   39.2547   19.2295 H           1 MOL       0.1855
     42 H2         15.0250   38.9991   17.1621 H           1 MOL       0.0584
     43 H3         16.8033   40.4750   17.0991 H           1 MOL       0.0313
     44 H4         17.5566   39.7313   18.5224 H           1 MOL       0.0313
     45 H5         16.7932   41.4673   19.8613 H           1 MOL       0.0503
     46 H6         16.0521   42.2338   18.4249 H           1 MOL       0.0503
     47 H7         14.9897   37.0695   18.7741 H           1 MOL       0.0634
     48 H8         16.3971   37.7544   19.6216 H           1 MOL       0.0634
     49 H9         18.1505   36.1385   15.9608 H           1 MOL       0.1873
     50 H10        18.8724   33.6970   17.2846 H           1 MOL       0.0604
     51 H11        16.6516   33.8783   15.2138 H           1 MOL       0.0449
     52 H12        16.6461   32.9930   16.7234 H           1 MOL       0.0449
     53 H13        18.2609   30.9195   16.8638 H           1 MOL       0.0557
     54 H14        19.0324   28.9740   15.6452 H           1 MOL       0.0599
     55 H15        18.8975   28.9166   13.2232 H           1 MOL       0.0559
     56 H16        17.9766   30.8045   12.0120 H           1 MOL       0.0599
     57 H17        17.1957   32.7473   13.2020 H           1 MOL       0.0557
     58 H18        19.2425   34.4878   14.3795 H           1 MOL       0.0634
     59 H19        20.0940   32.6387   14.3590 H           1 MOL       0.2100
     60 H20        20.3692   36.2176   16.0548 H           1 MOL       0.0504
     61 H21        21.1940   35.6029   14.6708 H           1 MOL       0.0504
     62 H22        23.9822   34.8700   16.7045 H           1 MOL       0.0481
     63 H23        23.4263   35.3799   15.1482 H           1 MOL       0.0481
     64 H24        24.6632   33.1983   15.2649 H           1 MOL       0.0314
     65 H25        23.5881   31.1441   16.0548 H           1 MOL       0.0233
     66 H26        22.1792   32.0663   16.6254 H           1 MOL       0.0233
     67 H27        23.7896   32.3282   17.3455 H           1 MOL       0.0233
     68 H28        23.7733   33.4223   13.2028 H           1 MOL       0.0266
     69 H29        22.1268   33.5784   13.7317 H           1 MOL       0.0266
     70 H30        22.4428   31.5405   12.4024 H           1 MOL       0.0230
     71 H31        21.9604   31.1081   14.0505 H           1 MOL       0.0230
     72 H32        23.6609   30.9418   13.5473 H           1 MOL       0.0230
     73 H33        22.7454   35.2420   20.8390 H           1 MOL       0.0580
     74 H34        23.7855   37.0692   22.0217 H           1 MOL       0.0584
     75 H35        22.4822   37.6382   17.3518 H           1 MOL       0.0592
     76 H36        24.8797   41.4507   20.3392 H           1 MOL       0.1260
@<TRIPOS>BOND
     1     1     2   2
     2     2     3  am
     3     2     6   1
     4     3     4   1
     5     4     5   1
     6     4     7   1
     7     5     6   1
     8     7     8   1
     9     8     9   1
    10     9    10   2
    11     9    11  am
    12    11    12   1
    13    12    13   1
    14    12    20   1
    15    13    14   1
    16    14    15  ar
    17    14    19  ar
    18    15    16  ar
    19    16    17  ar
    20    17    18  ar
    21    18    19  ar
    22    20    21   1
    23    20    22   1
    24    22    23   1
    25    23    24   1
    26    23    29  am
    27    24    25   1
    28    25    26   1
    29    25    27   1
    30    27    28   1
    31    29    30   2
    32    29    31   2
    33    29    32   1
    34    32    33  ar
    35    32    35  ar
    36    33    34  ar
    37    34    40  ar
    38    35    36  ar
    39    36    37   1
    40    36    40  ar
    41    37    38   1
    42    38    39   2
    43    39    40   1
    44     3    41   1
    45     4    42   1
    46     5    43   1
    47     5    44   1
    48     6    45   1
    49     6    46   1
    50     7    47   1
    51     7    48   1
    52    11    49   1
    53    12    50   1
    54    13    51   1
    55    13    52   1
    56    15    53   1
    57    16    54   1
    58    17    55   1
    59    18    56   1
    60    19    57   1
    61    20    58   1
    62    21    59   1
    63    22    60   1
    64    22    61   1
    65    24    62   1
    66    24    63   1
    67    25    64   1
    68    26    65   1
    69    26    66   1
    70    26    67   1
    71    27    68   1
    72    27    69   1
    73    28    70   1
    74    28    71   1
    75    28    72   1
    76    33    73   1
    77    34    74   1
    78    35    75   1
    79    38    76   1
@<TRIPOS>SUBSTRUCTURE
     1  MOL      2

