@<TRIPOS>MOLECULE
4djr_ligand_005
    76    79
SMALL
GAST_HUCK
****
This file was generated by PARSER (from files_GN.cpp)

@<TRIPOS>ATOM
      1 O28        24.9190   34.4949   14.9404 O.2         1 MOL      -0.3971
      2 C27        24.2567   33.5366   15.2998 C.2         1 MOL       0.1764
      3 N29        24.5736   32.3064   14.9800 N.am        1 MOL      -0.2812
      4 C24        23.6291   31.3386   15.4114 C.3         1 MOL       0.0716
      5 C25        22.7776   32.1516   16.4161 C.3         1 MOL      -0.0105
      6 C26        23.0363   33.6221   16.0391 C.3         1 MOL       0.0394
      7 C22        22.9005   30.6979   14.1858 C.3         1 MOL       0.1003
      8 O23        21.4688   30.6703   14.3299 O.3         1 MOL      -0.2616
      9 C21        20.5585   31.3276   13.5758 C.2         1 MOL       0.3200
     10 O22        20.9523   32.1114   12.5428 O.2         1 MOL      -0.3775
     11 N20        19.2499   31.2150   13.9086 N.am        1 MOL      -0.2550
     12 C19        18.1681   31.9072   13.2601 C.3         1 MOL       0.0807
     13 C32        16.9510   30.9411   13.0858 C.3         1 MOL       0.0064
     14 C38        16.9465   30.0077   11.9119 C.ar        1 MOL      -0.0408
     15 C37        15.7117   29.5285   11.4246 C.ar        1 MOL      -0.0603
     16 C36        15.6402   28.6162   10.3595 C.ar        1 MOL      -0.0686
     17 C35        16.8242   28.1673    9.7426 C.ar        1 MOL      -0.0687
     18 C34        18.0681   28.6332   10.2102 C.ar        1 MOL      -0.0686
     19 C33        18.1367   29.5319   11.2822 C.ar        1 MOL      -0.0603
     20 C17        17.8488   33.2415   14.0247 C.3         1 MOL       0.0967
     21 O18        19.0531   34.0082   14.0782 O.3         1 MOL      -0.3877
     22 C16        17.2053   33.1058   15.4363 C.3         1 MOL       0.0579
     23 N11        17.0612   34.3773   16.1356 N.am        1 MOL      -0.2317
     24 C12        15.9585   35.2540   15.8054 C.3         1 MOL       0.0322
     25 C13        14.7424   35.3761   16.7911 C.3         1 MOL      -0.0270
     26 C14        14.5195   34.1041   17.6545 C.3         1 MOL      -0.0610
     27 C15        14.6363   36.7168   17.6155 C.3         1 MOL      -0.0518
     28 C18        15.3502   36.8243   18.9726 C.3         1 MOL      -0.0650
     29 S8         18.3226   34.9232   17.1419 S.o2        1 MOL       0.0679
     30 O10        19.4639   33.8056   17.1091 O.2         1 MOL      -0.1506
     31 O9         17.9240   34.7971   18.6790 O.2         1 MOL      -0.1506
     32 C5         19.1337   36.4448   16.8064 C.ar        1 MOL       0.1007
     33 C6         20.5216   36.4855   16.5413 C.ar        1 MOL      -0.0433
     34 C7         21.1835   37.6796   16.1801 C.ar        1 MOL      -0.0517
     35 C4         18.4160   37.6651   16.7638 C.ar        1 MOL      -0.0206
     36 C3         19.0727   38.8434   16.3902 C.ar        1 MOL       0.0595
     37 S1         18.4885   40.4440   16.1800 S.3         1 MOL       0.0026
     38 C1         20.0206   41.0782   15.7277 C.2         1 MOL       0.0809
     39 N1         20.9380   40.0855   15.7375 N.2         1 MOL      -0.2931
     40 C2         20.4382   38.8724   16.0920 C.ar        1 MOL       0.0375
     41 H1         25.3379   32.1127   14.4112 H           1 MOL       0.1855
     42 H2         24.1497   30.5449   15.9554 H           1 MOL       0.0584
     43 H3         23.1476   31.9770   17.4292 H           1 MOL       0.0313
     44 H4         21.7143   31.9132   16.4105 H           1 MOL       0.0313
     45 H5         22.2473   34.0018   15.3857 H           1 MOL       0.0503
     46 H6         23.1461   34.2496   16.9263 H           1 MOL       0.0503
     47 H7         23.2281   29.6643   14.0689 H           1 MOL       0.0634
     48 H8         23.1800   31.2223   13.2666 H           1 MOL       0.0634
     49 H9         19.0401   30.6794   14.6889 H           1 MOL       0.1873
     50 H10        18.4694   32.2068   12.2491 H           1 MOL       0.0604
     51 H11        16.0557   31.5624   13.0078 H           1 MOL       0.0449
     52 H12        16.8260   30.3386   13.9910 H           1 MOL       0.0449
     53 H13        14.8354   29.8404   11.8488 H           1 MOL       0.0557
     54 H14        14.7337   28.2776   10.0339 H           1 MOL       0.0599
     55 H15        16.7733   27.5104    8.9678 H           1 MOL       0.0559
     56 H16        18.9251   28.3014    9.7576 H           1 MOL       0.0599
     57 H17        19.0501   29.8335   11.6116 H           1 MOL       0.0557
     58 H18        17.1600   33.8094   13.3945 H           1 MOL       0.0634
     59 H19        18.7840   34.9199   14.3120 H           1 MOL       0.2100
     60 H20        17.7744   32.3917   16.0416 H           1 MOL       0.0504
     61 H21        16.2172   32.6488   15.3191 H           1 MOL       0.0504
     62 H22        15.5415   34.9307   14.8519 H           1 MOL       0.0481
     63 H23        16.3368   36.2408   15.5692 H           1 MOL       0.0481
     64 H24        13.8571   35.4168   16.1456 H           1 MOL       0.0314
     65 H25        13.6228   34.2125   18.2767 H           1 MOL       0.0233
     66 H26        15.3706   33.9029   18.2993 H           1 MOL       0.0233
     67 H27        14.3707   33.2389   16.9978 H           1 MOL       0.0233
     68 H28        13.5724   36.8808   17.8310 H           1 MOL       0.0266
     69 H29        14.9435   37.5454   16.9806 H           1 MOL       0.0266
     70 H30        15.1505   37.8072   19.3967 H           1 MOL       0.0230
     71 H31        16.4256   36.7316   18.8615 H           1 MOL       0.0230
     72 H32        14.9926   36.0732   19.6669 H           1 MOL       0.0230
     73 H33        21.0788   35.6359   16.5993 H           1 MOL       0.0580
     74 H34        22.1834   37.6765   15.9751 H           1 MOL       0.0584
     75 H35        17.4280   37.7083   16.9761 H           1 MOL       0.0592
     76 H36        20.2111   42.0535   15.4905 H           1 MOL       0.1260
@<TRIPOS>BOND
     1     1     2   2
     2     2     3  am
     3     2     6   1
     4     3     4   1
     5     4     5   1
     6     4     7   1
     7     5     6   1
     8     7     8   1
     9     8     9   1
    10     9    10   2
    11     9    11  am
    12    11    12   1
    13    12    13   1
    14    12    20   1
    15    13    14   1
    16    14    15  ar
    17    14    19  ar
    18    15    16  ar
    19    16    17  ar
    20    17    18  ar
    21    18    19  ar
    22    20    21   1
    23    20    22   1
    24    22    23   1
    25    23    24   1
    26    23    29  am
    27    24    25   1
    28    25    26   1
    29    25    27   1
    30    27    28   1
    31    29    30   2
    32    29    31   2
    33    29    32   1
    34    32    33  ar
    35    32    35  ar
    36    33    34  ar
    37    34    40  ar
    38    35    36  ar
    39    36    37   1
    40    36    40  ar
    41    37    38   1
    42    38    39   2
    43    39    40   1
    44     3    41   1
    45     4    42   1
    46     5    43   1
    47     5    44   1
    48     6    45   1
    49     6    46   1
    50     7    47   1
    51     7    48   1
    52    11    49   1
    53    12    50   1
    54    13    51   1
    55    13    52   1
    56    15    53   1
    57    16    54   1
    58    17    55   1
    59    18    56   1
    60    19    57   1
    61    20    58   1
    62    21    59   1
    63    22    60   1
    64    22    61   1
    65    24    62   1
    66    24    63   1
    67    25    64   1
    68    26    65   1
    69    26    66   1
    70    26    67   1
    71    27    68   1
    72    27    69   1
    73    28    70   1
    74    28    71   1
    75    28    72   1
    76    33    73   1
    77    34    74   1
    78    35    75   1
    79    38    76   1
@<TRIPOS>SUBSTRUCTURE
     1  MOL      2

