@<TRIPOS>MOLECULE
4djr_ligand_001
    76    79
SMALL
GAST_HUCK
****
This file was generated by PARSER (from files_GN.cpp)

@<TRIPOS>ATOM
      1 O28        17.4075   39.5790   16.3351 O.2         1 MOL      -0.3971
      2 C27        18.2258   38.9942   17.0296 C.2         1 MOL       0.1764
      3 N29        18.6911   37.8093   16.7296 N.am        1 MOL      -0.2812
      4 C24        19.6245   37.2867   17.6576 C.3         1 MOL       0.0716
      5 C25        19.7510   38.4264   18.7035 C.3         1 MOL      -0.0105
      6 C26        18.7716   39.5268   18.2395 C.3         1 MOL       0.0394
      7 C22        19.1386   35.9340   18.2364 C.3         1 MOL       0.1003
      8 O23        19.2233   34.9132   17.2333 O.3         1 MOL      -0.2616
      9 C21        18.7510   33.6468   17.3446 C.2         1 MOL       0.3200
     10 O22        18.0927   33.2581   18.4633 O.2         1 MOL      -0.3775
     11 N20        18.8538   32.8445   16.2593 N.am        1 MOL      -0.2550
     12 C19        18.1855   31.5779   16.0971 C.3         1 MOL       0.0807
     13 C32        16.6524   31.7637   15.7559 C.3         1 MOL       0.0064
     14 C38        16.0622   33.1209   15.9623 C.ar        1 MOL      -0.0408
     15 C37        16.3231   34.1610   15.0341 C.ar        1 MOL      -0.0603
     16 C36        15.8241   35.4611   15.2462 C.ar        1 MOL      -0.0686
     17 C35        15.0567   35.7383   16.3912 C.ar        1 MOL      -0.0687
     18 C34        14.7595   34.7094   17.3021 C.ar        1 MOL      -0.0686
     19 C33        15.2667   33.4137   17.0952 C.ar        1 MOL      -0.0603
     20 C17        18.9236   30.7449   14.9899 C.3         1 MOL       0.0967
     21 O18        18.1683   29.5516   14.7328 O.3         1 MOL      -0.3877
     22 C16        20.4168   30.3281   15.2640 C.3         1 MOL       0.0579
     23 N11        21.3659   30.4846   14.1707 N.am        1 MOL      -0.2317
     24 C12        22.7603   30.7800   14.4557 C.3         1 MOL       0.0322
     25 C13        23.1340   32.1823   15.0715 C.3         1 MOL      -0.0270
     26 C14        24.5288   32.6368   14.5271 C.3         1 MOL      -0.0610
     27 C15        22.0105   33.2833   14.9992 C.3         1 MOL      -0.0518
     28 C18        22.3466   34.6781   14.4244 C.3         1 MOL      -0.0650
     29 S8         20.9602   30.1197   12.5570 S.o2        1 MOL       0.0679
     30 O10        20.6981   31.4951   11.8030 O.2         1 MOL      -0.1506
     31 O9         19.6244   29.2648   12.4228 O.2         1 MOL      -0.1506
     32 C5         22.1112   29.1475   11.6724 C.ar        1 MOL       0.1007
     33 C6         22.5089   29.5240   10.3663 C.ar        1 MOL      -0.0433
     34 C7         23.4391   28.7550    9.6380 C.ar        1 MOL      -0.0517
     35 C4         22.6371   27.9650   12.2470 C.ar        1 MOL      -0.0206
     36 C3         23.5482   27.1999   11.4976 C.ar        1 MOL       0.0595
     37 S1         24.3521   25.7277   11.8506 S.3         1 MOL       0.0026
     38 C1         25.1790   25.6658   10.3446 C.2         1 MOL       0.0809
     39 N1         24.8336   26.7406    9.6047 N.2         1 MOL      -0.2931
     40 C2         23.9550   27.5810   10.2093 C.ar        1 MOL       0.0375
     41 H1         18.4308   37.3347   15.9264 H           1 MOL       0.1855
     42 H2         20.5805   37.1358   17.1484 H           1 MOL       0.0584
     43 H3         20.7740   38.8132   18.7267 H           1 MOL       0.0313
     44 H4         19.4907   38.0882   19.7075 H           1 MOL       0.0313
     45 H5         17.9795   39.6891   18.9748 H           1 MOL       0.0503
     46 H6         19.2925   40.4672   18.0430 H           1 MOL       0.0503
     47 H7         18.1042   36.0315   18.5800 H           1 MOL       0.0634
     48 H8         19.7628   35.6489   19.0873 H           1 MOL       0.0634
     49 H9         19.2641   33.2253   15.4680 H           1 MOL       0.1873
     50 H10        18.2739   31.0146   17.0297 H           1 MOL       0.0604
     51 H11        16.0899   31.0304   16.3428 H           1 MOL       0.0449
     52 H12        16.4579   31.5071   14.7124 H           1 MOL       0.0449
     53 H13        16.8792   33.9756   14.1932 H           1 MOL       0.0557
     54 H14        16.0246   36.2038   14.5713 H           1 MOL       0.0599
     55 H15        14.7040   36.6824   16.5542 H           1 MOL       0.0559
     56 H16        14.1803   34.9053   18.1231 H           1 MOL       0.0599
     57 H17        15.0483   32.6822   17.7777 H           1 MOL       0.0557
     58 H18        18.8835   31.3457   14.0842 H           1 MOL       0.0634
     59 H19        18.1625   29.0498   15.5780 H           1 MOL       0.2100
     60 H20        20.4492   29.2803   15.5682 H           1 MOL       0.0504
     61 H21        20.7652   30.8952   16.1263 H           1 MOL       0.0504
     62 H22        23.3563   30.6510   13.5475 H           1 MOL       0.0481
     63 H23        23.1153   29.9978   15.1305 H           1 MOL       0.0481
     64 H24        23.3111   31.9990   16.1380 H           1 MOL       0.0314
     65 H25        24.9064   33.4968   15.0782 H           1 MOL       0.0233
     66 H26        24.4613   32.9004   13.4693 H           1 MOL       0.0233
     67 H27        25.2630   31.8391   14.6275 H           1 MOL       0.0233
     68 H28        21.6380   33.4508   16.0147 H           1 MOL       0.0266
     69 H29        21.1595   32.9314   14.4139 H           1 MOL       0.0266
     70 H30        21.4759   35.3318   14.5063 H           1 MOL       0.0230
     71 H31        22.6082   34.5830   13.3675 H           1 MOL       0.0230
     72 H32        23.1747   35.1402   14.9697 H           1 MOL       0.0230
     73 H33        22.1264   30.3649    9.9308 H           1 MOL       0.0580
     74 H34        23.7259   29.0433    8.7010 H           1 MOL       0.0584
     75 H35        22.3614   27.6603   13.1843 H           1 MOL       0.0592
     76 H36        25.8254   24.9325   10.0522 H           1 MOL       0.1260
@<TRIPOS>BOND
     1     1     2   2
     2     2     3  am
     3     2     6   1
     4     3     4   1
     5     4     5   1
     6     4     7   1
     7     5     6   1
     8     7     8   1
     9     8     9   1
    10     9    10   2
    11     9    11  am
    12    11    12   1
    13    12    13   1
    14    12    20   1
    15    13    14   1
    16    14    15  ar
    17    14    19  ar
    18    15    16  ar
    19    16    17  ar
    20    17    18  ar
    21    18    19  ar
    22    20    21   1
    23    20    22   1
    24    22    23   1
    25    23    24   1
    26    23    29  am
    27    24    25   1
    28    25    26   1
    29    25    27   1
    30    27    28   1
    31    29    30   2
    32    29    31   2
    33    29    32   1
    34    32    33  ar
    35    32    35  ar
    36    33    34  ar
    37    34    40  ar
    38    35    36  ar
    39    36    37   1
    40    36    40  ar
    41    37    38   1
    42    38    39   2
    43    39    40   1
    44     3    41   1
    45     4    42   1
    46     5    43   1
    47     5    44   1
    48     6    45   1
    49     6    46   1
    50     7    47   1
    51     7    48   1
    52    11    49   1
    53    12    50   1
    54    13    51   1
    55    13    52   1
    56    15    53   1
    57    16    54   1
    58    17    55   1
    59    18    56   1
    60    19    57   1
    61    20    58   1
    62    21    59   1
    63    22    60   1
    64    22    61   1
    65    24    62   1
    66    24    63   1
    67    25    64   1
    68    26    65   1
    69    26    66   1
    70    26    67   1
    71    27    68   1
    72    27    69   1
    73    28    70   1
    74    28    71   1
    75    28    72   1
    76    33    73   1
    77    34    74   1
    78    35    75   1
    79    38    76   1
@<TRIPOS>SUBSTRUCTURE
     1  MOL      2

