@<TRIPOS>MOLECULE
4djr_ligand_080
    76    79
SMALL
GAST_HUCK
****
This file was generated by PARSER (from files_GN.cpp)

@<TRIPOS>ATOM
      1 O28        15.4198   40.1594   22.1835 O.2         1 MOL      -0.3971
      2 C27        15.8685   39.7763   21.1122 C.2         1 MOL       0.1764
      3 N29        15.1851   39.0255   20.2884 N.am        1 MOL      -0.2812
      4 C24        15.8639   38.7154   19.0859 C.3         1 MOL       0.0716
      5 C25        17.2711   39.3357   19.2996 C.3         1 MOL      -0.0105
      6 C26        17.1627   40.1316   20.6171 C.3         1 MOL       0.0394
      7 C22        15.8500   37.1926   18.8057 C.3         1 MOL       0.1003
      8 O23        16.8385   36.8927   17.8136 O.3         1 MOL      -0.2616
      9 C21        17.8565   36.0005   17.9117 C.2         1 MOL       0.3200
     10 O22        17.9631   35.1926   18.9946 O.2         1 MOL      -0.3775
     11 N20        18.7548   35.9783   16.9032 N.am        1 MOL      -0.2550
     12 C19        19.8967   35.1160   16.7722 C.3         1 MOL       0.0807
     13 C32        20.7523   35.0562   18.0822 C.3         1 MOL       0.0064
     14 C38        21.6176   36.2565   18.2645 C.ar        1 MOL      -0.0408
     15 C37        21.4635   37.1216   19.3746 C.ar        1 MOL      -0.0603
     16 C36        22.2887   38.2516   19.5248 C.ar        1 MOL      -0.0686
     17 C35        23.2758   38.5378   18.5674 C.ar        1 MOL      -0.0687
     18 C34        23.4391   37.6919   17.4574 C.ar        1 MOL      -0.0686
     19 C33        22.6195   36.5588   17.3088 C.ar        1 MOL      -0.0603
     20 C17        19.4970   33.7214   16.1796 C.3         1 MOL       0.0967
     21 O18        20.5874   32.8111   16.3207 O.3         1 MOL      -0.3877
     22 C16        19.0842   33.8068   14.6742 C.3         1 MOL       0.0579
     23 N11        18.4083   32.6301   14.1588 N.am        1 MOL      -0.2317
     24 C12        16.9649   32.6278   14.0613 C.3         1 MOL       0.0322
     25 C13        16.1877   32.9303   15.3924 C.3         1 MOL      -0.0270
     26 C14        15.0678   33.9867   15.1720 C.3         1 MOL      -0.0610
     27 C15        15.5891   31.6567   16.0657 C.3         1 MOL      -0.0518
     28 C18        16.5999   30.5022   16.2497 C.3         1 MOL      -0.0650
     29 S8         19.3439   31.3939   13.4480 S.o2        1 MOL       0.0679
     30 O10        20.0816   30.5724   14.5966 O.2         1 MOL      -0.1506
     31 O9         20.5443   32.0675   12.6430 O.2         1 MOL      -0.1506
     32 C5         18.7842   30.2254   12.2776 C.ar        1 MOL       0.1007
     33 C6         17.4808   30.2434   11.7282 C.ar        1 MOL      -0.0433
     34 C7         17.0701   29.2734   10.7909 C.ar        1 MOL      -0.0517
     35 C4         19.6988   29.2361   11.8381 C.ar        1 MOL      -0.0206
     36 C3         19.2869   28.2938   10.8843 C.ar        1 MOL       0.0595
     37 S1         20.1346   27.0050   10.1308 S.3         1 MOL       0.0026
     38 C1         18.7814   26.5104    9.1800 C.2         1 MOL       0.0809
     39 N1         17.7319   27.3201    9.4423 N.2         1 MOL      -0.2931
     40 C2         17.9817   28.2892   10.3613 C.ar        1 MOL       0.0375
     41 H1         14.2804   38.7296   20.4715 H           1 MOL       0.1855
     42 H2         15.3537   39.2259   18.2630 H           1 MOL       0.0584
     43 H3         17.5356   39.9922   18.4669 H           1 MOL       0.0313
     44 H4         18.0454   38.5693   19.3865 H           1 MOL       0.0313
     45 H5         17.9408   39.8396   21.3257 H           1 MOL       0.0503
     46 H6         17.2147   41.2080   20.4351 H           1 MOL       0.0503
     47 H7         14.8734   36.8994   18.4147 H           1 MOL       0.0634
     48 H8         16.0298   36.6416   19.7335 H           1 MOL       0.0634
     49 H9         18.5870   36.5745   16.1556 H           1 MOL       0.1873
     50 H10        20.5241   35.5859   16.0054 H           1 MOL       0.0604
     51 H11        21.4032   34.1784   18.0649 H           1 MOL       0.0449
     52 H12        20.0890   34.9232   18.9375 H           1 MOL       0.0449
     53 H13        20.7486   36.9345   20.0802 H           1 MOL       0.0557
     54 H14        22.1805   38.8631   20.3363 H           1 MOL       0.0599
     55 H15        23.8782   39.3553   18.6838 H           1 MOL       0.0559
     56 H16        24.1667   37.8942   16.7662 H           1 MOL       0.0599
     57 H17        22.7651   35.9475   16.5000 H           1 MOL       0.0557
     58 H18        18.6590   33.3136   16.7517 H           1 MOL       0.0634
     59 H19        21.3268   33.2048   15.8040 H           1 MOL       0.2100
     60 H20        19.9717   34.0259   14.0724 H           1 MOL       0.0504
     61 H21        18.4382   34.6766   14.5463 H           1 MOL       0.0504
     62 H22        16.5941   31.6801   13.6655 H           1 MOL       0.0481
     63 H23        16.7197   33.3812   13.3095 H           1 MOL       0.0481
     64 H24        16.8668   33.3769   16.1279 H           1 MOL       0.0314
     65 H25        14.5459   34.2086   16.1116 H           1 MOL       0.0233
     66 H26        14.3358   33.6178   14.4410 H           1 MOL       0.0233
     67 H27        15.5002   34.9210   14.7969 H           1 MOL       0.0233
     68 H28        14.7438   31.2906   15.4732 H           1 MOL       0.0266
     69 H29        15.1908   31.9154   17.0538 H           1 MOL       0.0266
     70 H30        16.1340   29.6905   16.8107 H           1 MOL       0.0230
     71 H31        17.4792   30.8524   16.7986 H           1 MOL       0.0230
     72 H32        16.9171   30.1027   15.2865 H           1 MOL       0.0230
     73 H33        16.8343   30.9775   11.9980 H           1 MOL       0.0580
     74 H34        16.1245   29.2921   10.4000 H           1 MOL       0.0584
     75 H35        20.6641   29.2029   12.1851 H           1 MOL       0.0592
     76 H36        18.7729   25.7383    8.5199 H           1 MOL       0.1260
@<TRIPOS>BOND
     1     1     2   2
     2     2     3  am
     3     2     6   1
     4     3     4   1
     5     4     5   1
     6     4     7   1
     7     5     6   1
     8     7     8   1
     9     8     9   1
    10     9    10   2
    11     9    11  am
    12    11    12   1
    13    12    13   1
    14    12    20   1
    15    13    14   1
    16    14    15  ar
    17    14    19  ar
    18    15    16  ar
    19    16    17  ar
    20    17    18  ar
    21    18    19  ar
    22    20    21   1
    23    20    22   1
    24    22    23   1
    25    23    24   1
    26    23    29  am
    27    24    25   1
    28    25    26   1
    29    25    27   1
    30    27    28   1
    31    29    30   2
    32    29    31   2
    33    29    32   1
    34    32    33  ar
    35    32    35  ar
    36    33    34  ar
    37    34    40  ar
    38    35    36  ar
    39    36    37   1
    40    36    40  ar
    41    37    38   1
    42    38    39   2
    43    39    40   1
    44     3    41   1
    45     4    42   1
    46     5    43   1
    47     5    44   1
    48     6    45   1
    49     6    46   1
    50     7    47   1
    51     7    48   1
    52    11    49   1
    53    12    50   1
    54    13    51   1
    55    13    52   1
    56    15    53   1
    57    16    54   1
    58    17    55   1
    59    18    56   1
    60    19    57   1
    61    20    58   1
    62    21    59   1
    63    22    60   1
    64    22    61   1
    65    24    62   1
    66    24    63   1
    67    25    64   1
    68    26    65   1
    69    26    66   1
    70    26    67   1
    71    27    68   1
    72    27    69   1
    73    28    70   1
    74    28    71   1
    75    28    72   1
    76    33    73   1
    77    34    74   1
    78    35    75   1
    79    38    76   1
@<TRIPOS>SUBSTRUCTURE
     1  MOL      2

