@<TRIPOS>MOLECULE
4djr_ligand_006
    76    79
SMALL
GAST_HUCK
****
This file was generated by PARSER (from files_GN.cpp)

@<TRIPOS>ATOM
      1 O28        14.1494   41.2916   19.8585 O.2         1 MOL      -0.3971
      2 C27        14.9186   40.6196   19.1856 C.2         1 MOL       0.1764
      3 N29        14.6357   39.4126   18.7633 N.am        1 MOL      -0.2812
      4 C24        15.6378   38.8255   17.9542 C.3         1 MOL       0.0716
      5 C25        16.7824   39.8748   17.9964 C.3         1 MOL      -0.0105
      6 C26        16.2171   41.0696   18.7918 C.3         1 MOL       0.0394
      7 C22        16.0256   37.4052   18.4422 C.3         1 MOL       0.1003
      8 O23        16.9134   36.8230   17.4843 O.3         1 MOL      -0.2616
      9 C21        17.5674   35.6387   17.5302 C.2         1 MOL       0.3200
     10 O22        17.4197   34.8034   18.5830 O.2         1 MOL      -0.3775
     11 N20        18.4123   35.4007   16.5060 N.am        1 MOL      -0.2550
     12 C19        19.3524   34.3233   16.3570 C.3         1 MOL       0.0807
     13 C32        18.7031   33.2550   15.4151 C.3         1 MOL       0.0064
     14 C38        19.2686   31.8805   15.5644 C.ar        1 MOL      -0.0408
     15 C37        19.9018   31.2220   14.4807 C.ar        1 MOL      -0.0603
     16 C36        20.4115   29.9175   14.6251 C.ar        1 MOL      -0.0686
     17 C35        20.2978   29.2457   15.8561 C.ar        1 MOL      -0.0687
     18 C34        19.6702   29.8798   16.9422 C.ar        1 MOL      -0.0686
     19 C33        19.1475   31.1769   16.7912 C.ar        1 MOL      -0.0603
     20 C17        20.7290   34.9291   15.8842 C.3         1 MOL       0.0967
     21 O18        21.3775   34.0504   14.9570 O.3         1 MOL      -0.3877
     22 C16        21.7752   35.3130   16.9903 C.3         1 MOL       0.0579
     23 N11        21.2765   35.7839   18.2743 N.am        1 MOL      -0.2317
     24 C12        20.9398   34.8254   19.3138 C.3         1 MOL       0.0322
     25 C13        21.2698   35.1062   20.8134 C.3         1 MOL      -0.0270
     26 C14        20.7437   33.9072   21.6638 C.3         1 MOL      -0.0610
     27 C15        22.7537   35.4684   21.1862 C.3         1 MOL      -0.0518
     28 C18        23.8389   35.3633   20.0911 C.3         1 MOL      -0.0650
     29 S8         20.8043   37.4048   18.4533 S.o2        1 MOL       0.0679
     30 O10        21.6545   38.0975   19.6088 O.2         1 MOL      -0.1506
     31 O9         19.3145   37.4872   19.0024 O.2         1 MOL      -0.1506
     32 C5         20.9527   38.4542   17.0633 C.ar        1 MOL       0.1007
     33 C6         19.8270   38.8035   16.2758 C.ar        1 MOL      -0.0433
     34 C7         19.9439   39.7071   15.1974 C.ar        1 MOL      -0.0517
     35 C4         22.2186   38.9993   16.7365 C.ar        1 MOL      -0.0206
     36 C3         22.3181   39.8892   15.6527 C.ar        1 MOL       0.0595
     37 S1         23.6627   40.7359   15.0079 S.3         1 MOL       0.0026
     38 C1         22.7461   41.5119   13.7770 C.2         1 MOL       0.0809
     39 N1         21.4552   41.1272   13.8755 N.2         1 MOL      -0.2931
     40 C2         21.2010   40.2505   14.8846 C.ar        1 MOL       0.0375
     41 H1         13.7930   38.9713   18.9532 H           1 MOL       0.1855
     42 H2         15.2441   38.7465   16.9382 H           1 MOL       0.0584
     43 H3         17.0631   40.1838   16.9851 H           1 MOL       0.0313
     44 H4         17.6730   39.4932   18.5003 H           1 MOL       0.0313
     45 H5         16.8283   41.2895   19.6716 H           1 MOL       0.0503
     46 H6         16.1397   41.9640   18.1652 H           1 MOL       0.0503
     47 H7         15.1337   36.7784   18.5334 H           1 MOL       0.0634
     48 H8         16.5146   37.4603   19.4196 H           1 MOL       0.0634
     49 H9         18.3944   36.0540   15.7914 H           1 MOL       0.1873
     50 H10        19.5098   33.8330   17.3171 H           1 MOL       0.0604
     51 H11        18.7701   33.6053   14.3805 H           1 MOL       0.0449
     52 H12        17.6381   33.1708   15.6435 H           1 MOL       0.0449
     53 H13        19.9945   31.6905   13.5753 H           1 MOL       0.0557
     54 H14        20.8596   29.4532   13.8317 H           1 MOL       0.0599
     55 H15        20.6652   28.2965   15.9602 H           1 MOL       0.0559
     56 H16        19.5856   29.3926   17.8389 H           1 MOL       0.0599
     57 H17        18.6715   31.6062   17.5883 H           1 MOL       0.0557
     58 H18        20.5268   35.8328   15.3005 H           1 MOL       0.0634
     59 H19        22.0763   34.5838   14.5240 H           1 MOL       0.2100
     60 H20        22.4457   36.0664   16.5679 H           1 MOL       0.0504
     61 H21        22.4296   34.4509   17.1604 H           1 MOL       0.0504
     62 H22        21.3677   33.8451   19.0774 H           1 MOL       0.0481
     63 H23        19.8586   34.7099   19.2805 H           1 MOL       0.0481
     64 H24        20.6548   35.9632   21.1023 H           1 MOL       0.0314
     65 H25        20.7996   34.1338   22.7272 H           1 MOL       0.0233
     66 H26        21.3315   33.0103   21.4639 H           1 MOL       0.0233
     67 H27        19.6997   33.6857   21.4281 H           1 MOL       0.0233
     68 H28        23.0944   34.8385   22.0155 H           1 MOL       0.0266
     69 H29        22.7845   36.4976   21.5586 H           1 MOL       0.0266
     70 H30        24.8266   35.5165   20.5380 H           1 MOL       0.0230
     71 H31        23.7015   36.1273   19.3257 H           1 MOL       0.0230
     72 H32        23.8192   34.3783   19.6258 H           1 MOL       0.0230
     73 H33        18.9126   38.4122   16.4841 H           1 MOL       0.0580
     74 H34        19.1206   39.9757   14.6533 H           1 MOL       0.0584
     75 H35        23.0549   38.7664   17.2765 H           1 MOL       0.0592
     76 H36        23.1162   42.1622   13.0852 H           1 MOL       0.1260
@<TRIPOS>BOND
     1     1     2   2
     2     2     3  am
     3     2     6   1
     4     3     4   1
     5     4     5   1
     6     4     7   1
     7     5     6   1
     8     7     8   1
     9     8     9   1
    10     9    10   2
    11     9    11  am
    12    11    12   1
    13    12    13   1
    14    12    20   1
    15    13    14   1
    16    14    15  ar
    17    14    19  ar
    18    15    16  ar
    19    16    17  ar
    20    17    18  ar
    21    18    19  ar
    22    20    21   1
    23    20    22   1
    24    22    23   1
    25    23    24   1
    26    23    29  am
    27    24    25   1
    28    25    26   1
    29    25    27   1
    30    27    28   1
    31    29    30   2
    32    29    31   2
    33    29    32   1
    34    32    33  ar
    35    32    35  ar
    36    33    34  ar
    37    34    40  ar
    38    35    36  ar
    39    36    37   1
    40    36    40  ar
    41    37    38   1
    42    38    39   2
    43    39    40   1
    44     3    41   1
    45     4    42   1
    46     5    43   1
    47     5    44   1
    48     6    45   1
    49     6    46   1
    50     7    47   1
    51     7    48   1
    52    11    49   1
    53    12    50   1
    54    13    51   1
    55    13    52   1
    56    15    53   1
    57    16    54   1
    58    17    55   1
    59    18    56   1
    60    19    57   1
    61    20    58   1
    62    21    59   1
    63    22    60   1
    64    22    61   1
    65    24    62   1
    66    24    63   1
    67    25    64   1
    68    26    65   1
    69    26    66   1
    70    26    67   1
    71    27    68   1
    72    27    69   1
    73    28    70   1
    74    28    71   1
    75    28    72   1
    76    33    73   1
    77    34    74   1
    78    35    75   1
    79    38    76   1
@<TRIPOS>SUBSTRUCTURE
     1  MOL      2

