@<TRIPOS>MOLECULE
4djr_ligand_003
    76    79
SMALL
GAST_HUCK
****
This file was generated by PARSER (from files_GN.cpp)

@<TRIPOS>ATOM
      1 O28        23.8401   30.3737   13.5339 O.2         1 MOL      -0.3971
      2 C27        23.2879   31.4297   13.8017 C.2         1 MOL       0.1764
      3 N29        23.8791   32.5938   13.7024 N.am        1 MOL      -0.2812
      4 C24        23.0903   33.6861   14.1425 C.3         1 MOL       0.0716
      5 C25        21.7157   33.0228   14.4353 C.3         1 MOL      -0.0105
      6 C26        21.9565   31.5048   14.3191 C.3         1 MOL       0.0394
      7 C22        23.7815   34.3868   15.3441 C.3         1 MOL       0.1003
      8 O23        22.8735   35.2228   16.0844 O.3         1 MOL      -0.2616
      9 C21        22.4690   35.0173   17.3639 C.2         1 MOL       0.3200
     10 O22        22.9241   33.9367   18.0492 O.2         1 MOL      -0.3775
     11 N20        21.5330   35.8390   17.8938 N.am        1 MOL      -0.2550
     12 C19        20.7833   35.5576   19.0891 C.3         1 MOL       0.0807
     13 C32        21.1703   36.5649   20.2126 C.3         1 MOL       0.0064
     14 C38        22.5847   36.4711   20.6771 C.ar        1 MOL      -0.0408
     15 C37        23.4199   37.6166   20.7257 C.ar        1 MOL      -0.0603
     16 C36        24.7484   37.5218   21.1767 C.ar        1 MOL      -0.0686
     17 C35        25.2714   36.2771   21.5727 C.ar        1 MOL      -0.0687
     18 C34        24.4541   35.1339   21.5393 C.ar        1 MOL      -0.0686
     19 C33        23.1179   35.2330   21.1066 C.ar        1 MOL      -0.0603
     20 C17        19.2334   35.5548   18.8170 C.3         1 MOL       0.0967
     21 O18        18.6152   34.5306   19.5980 O.3         1 MOL      -0.3877
     22 C16        18.8101   35.3511   17.3282 C.3         1 MOL       0.0579
     23 N11        17.4045   35.0919   17.0273 N.am        1 MOL      -0.2317
     24 C12        17.0343   33.8638   16.3398 C.3         1 MOL       0.0322
     25 C13        17.7260   33.6374   14.9421 C.3         1 MOL      -0.0270
     26 C14        17.7465   32.1232   14.5856 C.3         1 MOL      -0.0610
     27 C15        17.1441   34.4423   13.7253 C.3         1 MOL      -0.0518
     28 C18        16.3125   35.7128   14.0042 C.3         1 MOL      -0.0650
     29 S8         16.1763   36.0752   17.6733 S.o2        1 MOL       0.0679
     30 O10        15.4518   35.2312   18.8149 O.2         1 MOL      -0.1506
     31 O9         15.0436   36.3558   16.5883 O.2         1 MOL      -0.1506
     32 C5         16.6327   37.6483   18.2784 C.ar        1 MOL       0.1007
     33 C6         17.5133   38.4675   17.5294 C.ar        1 MOL      -0.0433
     34 C7         18.0258   39.6634   18.0783 C.ar        1 MOL      -0.0517
     35 C4         16.2100   38.0715   19.5618 C.ar        1 MOL      -0.0206
     36 C3         16.7397   39.2585   20.0887 C.ar        1 MOL       0.0595
     37 S1         16.5053   40.0133   21.6127 S.3         1 MOL       0.0026
     38 C1         17.5797   41.3130   21.2745 C.2         1 MOL       0.0809
     39 N1         18.0881   41.1594   20.0301 N.2         1 MOL      -0.2931
     40 C2         17.6474   40.0509   19.3750 C.ar        1 MOL       0.0375
     41 H1         24.8057   32.6937   13.4256 H           1 MOL       0.1855
     42 H2         22.9806   34.3992   13.3210 H           1 MOL       0.0584
     43 H3         20.9876   33.3393   13.6821 H           1 MOL       0.0313
     44 H4         21.3157   33.2683   15.4215 H           1 MOL       0.0313
     45 H5         21.9013   31.0186   15.2989 H           1 MOL       0.0503
     46 H6         21.2414   31.0401   13.6347 H           1 MOL       0.0503
     47 H7         24.5847   35.0240   14.9767 H           1 MOL       0.0634
     48 H8         24.2357   33.6310   15.9904 H           1 MOL       0.0634
     49 H9         21.2705   36.6152   17.3750 H           1 MOL       0.1873
     50 H10        21.0347   34.5550   19.4585 H           1 MOL       0.0604
     51 H11        20.5234   36.3841   21.0724 H           1 MOL       0.0449
     52 H12        20.9530   37.5759   19.8559 H           1 MOL       0.0449
     53 H13        23.0616   38.5317   20.4412 H           1 MOL       0.0557
     54 H14        25.3414   38.3559   21.2081 H           1 MOL       0.0599
     55 H15        26.2400   36.2013   21.8884 H           1 MOL       0.0559
     56 H16        24.8331   34.2271   21.8256 H           1 MOL       0.0599
     57 H17        22.5334   34.3936   21.1013 H           1 MOL       0.0557
     58 H18        18.8258   36.5064   19.1531 H           1 MOL       0.0634
     59 H19        19.0774   33.7002   19.3491 H           1 MOL       0.2100
     60 H20        19.4228   34.5182   16.9644 H           1 MOL       0.0504
     61 H21        19.0970   36.2397   16.7573 H           1 MOL       0.0504
     62 H22        15.9527   33.7856   16.1951 H           1 MOL       0.0481
     63 H23        17.2974   33.0498   17.0294 H           1 MOL       0.0481
     64 H24        18.7744   33.9350   15.0298 H           1 MOL       0.0314
     65 H25        18.2461   31.9664   13.6278 H           1 MOL       0.0233
     66 H26        16.7273   31.7325   14.5207 H           1 MOL       0.0233
     67 H27        18.2892   31.5555   15.3473 H           1 MOL       0.0233
     68 H28        16.5141   33.7855   13.1197 H           1 MOL       0.0266
     69 H29        17.9945   34.7439   13.1001 H           1 MOL       0.0266
     70 H30        16.2232   36.3012   13.0791 H           1 MOL       0.0230
     71 H31        16.7786   36.3300   14.7759 H           1 MOL       0.0230
     72 H32        15.3100   35.4251   14.3263 H           1 MOL       0.0230
     73 H33        17.8236   38.1746   16.6038 H           1 MOL       0.0580
     74 H34        18.6842   40.2307   17.5415 H           1 MOL       0.0584
     75 H35        15.5728   37.5062   20.1313 H           1 MOL       0.0592
     76 H36        17.7995   42.0809   21.9122 H           1 MOL       0.1260
@<TRIPOS>BOND
     1     1     2   2
     2     2     3  am
     3     2     6   1
     4     3     4   1
     5     4     5   1
     6     4     7   1
     7     5     6   1
     8     7     8   1
     9     8     9   1
    10     9    10   2
    11     9    11  am
    12    11    12   1
    13    12    13   1
    14    12    20   1
    15    13    14   1
    16    14    15  ar
    17    14    19  ar
    18    15    16  ar
    19    16    17  ar
    20    17    18  ar
    21    18    19  ar
    22    20    21   1
    23    20    22   1
    24    22    23   1
    25    23    24   1
    26    23    29  am
    27    24    25   1
    28    25    26   1
    29    25    27   1
    30    27    28   1
    31    29    30   2
    32    29    31   2
    33    29    32   1
    34    32    33  ar
    35    32    35  ar
    36    33    34  ar
    37    34    40  ar
    38    35    36  ar
    39    36    37   1
    40    36    40  ar
    41    37    38   1
    42    38    39   2
    43    39    40   1
    44     3    41   1
    45     4    42   1
    46     5    43   1
    47     5    44   1
    48     6    45   1
    49     6    46   1
    50     7    47   1
    51     7    48   1
    52    11    49   1
    53    12    50   1
    54    13    51   1
    55    13    52   1
    56    15    53   1
    57    16    54   1
    58    17    55   1
    59    18    56   1
    60    19    57   1
    61    20    58   1
    62    21    59   1
    63    22    60   1
    64    22    61   1
    65    24    62   1
    66    24    63   1
    67    25    64   1
    68    26    65   1
    69    26    66   1
    70    26    67   1
    71    27    68   1
    72    27    69   1
    73    28    70   1
    74    28    71   1
    75    28    72   1
    76    33    73   1
    77    34    74   1
    78    35    75   1
    79    38    76   1
@<TRIPOS>SUBSTRUCTURE
     1  MOL      2

