@<TRIPOS>MOLECULE
4djr_ligand_069
    76    79
SMALL
GAST_HUCK
****
This file was generated by PARSER (from files_GN.cpp)

@<TRIPOS>ATOM
      1 O28        14.3019   34.3324   16.2339 O.2         1 MOL      -0.3971
      2 C27        15.4904   34.0443   16.1867 C.2         1 MOL       0.1764
      3 N29        16.3465   34.7144   15.4654 N.am        1 MOL      -0.2812
      4 C24        17.6805   34.2555   15.5649 C.3         1 MOL       0.0716
      5 C25        17.5772   33.0810   16.5771 C.3         1 MOL      -0.0105
      6 C26        16.0786   32.9653   16.9213 C.3         1 MOL       0.0394
      7 C22        18.2658   33.8902   14.1750 C.3         1 MOL       0.1003
      8 O23        17.6799   32.6852   13.6621 O.3         1 MOL      -0.2616
      9 C21        18.1397   31.9208   12.6377 C.2         1 MOL       0.3200
     10 O22        19.2757   32.2431   11.9749 O.2         1 MOL      -0.3775
     11 N20        17.4456   30.7797   12.4176 N.am        1 MOL      -0.2550
     12 C19        17.8271   29.6111   11.6637 C.3         1 MOL       0.0807
     13 C32        18.3290   28.5769   12.7322 C.3         1 MOL       0.0064
     14 C38        19.7065   28.7174   13.3101 C.ar        1 MOL      -0.0408
     15 C37        20.0266   27.9574   14.4593 C.ar        1 MOL      -0.0603
     16 C36        21.3262   27.9544   14.9946 C.ar        1 MOL      -0.0686
     17 C35        22.3399   28.7126   14.3865 C.ar        1 MOL      -0.0687
     18 C34        22.0479   29.4850   13.2511 C.ar        1 MOL      -0.0686
     19 C33        20.7482   29.4787   12.7143 C.ar        1 MOL      -0.0603
     20 C17        16.6031   29.1356   10.8047 C.3         1 MOL       0.0967
     21 O18        15.4391   29.1215   11.6421 O.3         1 MOL      -0.3877
     22 C16        16.6911   27.7425   10.0948 C.3         1 MOL       0.0579
     23 N11        17.7796   27.4893    9.1624 N.am        1 MOL      -0.2317
     24 C12        17.8386   28.1640    7.8833 C.3         1 MOL       0.0322
     25 C13        17.5499   27.3568    6.5564 C.3         1 MOL      -0.0270
     26 C14        18.7846   27.2959    5.6074 C.3         1 MOL      -0.0610
     27 C15        16.8052   25.9734    6.6959 C.3         1 MOL      -0.0518
     28 C18        17.5785   24.6699    6.3715 C.3         1 MOL      -0.0650
     29 S8         19.0776   26.4853    9.6161 S.o2        1 MOL       0.0679
     30 O10        20.2548   27.3531   10.2410 O.2         1 MOL      -0.1506
     31 O9         19.7881   25.8491    8.3437 O.2         1 MOL      -0.1506
     32 C5         18.7092   25.1185   10.6454 C.ar        1 MOL       0.1007
     33 C6         17.3967   24.5797   10.6886 C.ar        1 MOL      -0.0433
     34 C7         17.0791   23.5207   11.5698 C.ar        1 MOL      -0.0517
     35 C4         19.7149   24.5719   11.4841 C.ar        1 MOL      -0.0206
     36 C3         19.3730   23.5175   12.3455 C.ar        1 MOL       0.0595
     37 S1         20.3171   22.6446   13.4819 S.3         1 MOL       0.0026
     38 C1         19.0005   21.6816   14.0266 C.2         1 MOL       0.0809
     39 N1         17.8869   22.0147   13.3395 N.2         1 MOL      -0.2931
     40 C2         18.0688   23.0003   12.4205 C.ar        1 MOL       0.0375
     41 H1         16.0967   35.4878   14.9337 H           1 MOL       0.1855
     42 H2         18.2832   35.0607   15.9939 H           1 MOL       0.0584
     43 H3         18.1551   33.3024   17.4821 H           1 MOL       0.0313
     44 H4         17.9499   32.1380   16.1632 H           1 MOL       0.0313
     45 H5         15.6601   32.0113   16.5850 H           1 MOL       0.0503
     46 H6         15.9014   33.0858   17.9942 H           1 MOL       0.0503
     47 H7         19.3460   33.7525   14.2755 H           1 MOL       0.0634
     48 H8         18.0850   34.7027   13.4674 H           1 MOL       0.0634
     49 H9         16.6441   30.6820   12.9586 H           1 MOL       0.1873
     50 H10        18.6270   29.8372   10.9530 H           1 MOL       0.0604
     51 H11        18.2993   27.5741   12.3120 H           1 MOL       0.0449
     52 H12        17.6066   28.5696   13.5592 H           1 MOL       0.0449
     53 H13        19.3126   27.3800   14.9131 H           1 MOL       0.0557
     54 H14        21.5427   27.3896   15.8192 H           1 MOL       0.0599
     55 H15        23.2916   28.6979   14.7622 H           1 MOL       0.0559
     56 H16        22.7856   30.0344   12.8026 H           1 MOL       0.0599
     57 H17        20.5995   30.0092   11.8640 H           1 MOL       0.0557
     58 H18        16.4347   29.8976   10.0389 H           1 MOL       0.0634
     59 H19        14.6963   29.4141   11.0747 H           1 MOL       0.2100
     60 H20        15.7502   27.6137    9.5504 H           1 MOL       0.0504
     61 H21        16.6680   26.9647   10.8582 H           1 MOL       0.0504
     62 H22        18.8185   28.6508    7.8064 H           1 MOL       0.0481
     63 H23        17.1322   29.0013    7.9136 H           1 MOL       0.0481
     64 H24        16.8398   27.9822    5.9993 H           1 MOL       0.0314
     65 H25        18.5112   26.8142    4.6621 H           1 MOL       0.0233
     66 H26        19.6033   26.7364    6.0743 H           1 MOL       0.0233
     67 H27        19.1308   28.3098    5.3846 H           1 MOL       0.0233
     68 H28        15.9457   25.9822    6.0111 H           1 MOL       0.0266
     69 H29        16.3942   25.8720    7.7069 H           1 MOL       0.0266
     70 H30        16.9362   23.8030    6.5754 H           1 MOL       0.0230
     71 H31        18.4843   24.5858    6.9793 H           1 MOL       0.0230
     72 H32        17.8590   24.6412    5.3127 H           1 MOL       0.0230
     73 H33        16.6716   24.9529   10.0752 H           1 MOL       0.0580
     74 H34        16.1271   23.1471   11.5973 H           1 MOL       0.0584
     75 H35        20.6707   24.9382   11.4880 H           1 MOL       0.0592
     76 H36        19.0591   20.9712   14.7542 H           1 MOL       0.1260
@<TRIPOS>BOND
     1     1     2   2
     2     2     3  am
     3     2     6   1
     4     3     4   1
     5     4     5   1
     6     4     7   1
     7     5     6   1
     8     7     8   1
     9     8     9   1
    10     9    10   2
    11     9    11  am
    12    11    12   1
    13    12    13   1
    14    12    20   1
    15    13    14   1
    16    14    15  ar
    17    14    19  ar
    18    15    16  ar
    19    16    17  ar
    20    17    18  ar
    21    18    19  ar
    22    20    21   1
    23    20    22   1
    24    22    23   1
    25    23    24   1
    26    23    29  am
    27    24    25   1
    28    25    26   1
    29    25    27   1
    30    27    28   1
    31    29    30   2
    32    29    31   2
    33    29    32   1
    34    32    33  ar
    35    32    35  ar
    36    33    34  ar
    37    34    40  ar
    38    35    36  ar
    39    36    37   1
    40    36    40  ar
    41    37    38   1
    42    38    39   2
    43    39    40   1
    44     3    41   1
    45     4    42   1
    46     5    43   1
    47     5    44   1
    48     6    45   1
    49     6    46   1
    50     7    47   1
    51     7    48   1
    52    11    49   1
    53    12    50   1
    54    13    51   1
    55    13    52   1
    56    15    53   1
    57    16    54   1
    58    17    55   1
    59    18    56   1
    60    19    57   1
    61    20    58   1
    62    21    59   1
    63    22    60   1
    64    22    61   1
    65    24    62   1
    66    24    63   1
    67    25    64   1
    68    26    65   1
    69    26    66   1
    70    26    67   1
    71    27    68   1
    72    27    69   1
    73    28    70   1
    74    28    71   1
    75    28    72   1
    76    33    73   1
    77    34    74   1
    78    35    75   1
    79    38    76   1
@<TRIPOS>SUBSTRUCTURE
     1  MOL      2

