@<TRIPOS>MOLECULE
4djr_ligand_046
    76    79
SMALL
GAST_HUCK
****
This file was generated by PARSER (from files_GN.cpp)

@<TRIPOS>ATOM
      1 O28        15.6131   34.2488   18.6772 O.2         1 MOL      -0.3971
      2 C27        16.0111   34.8631   17.6878 C.2         1 MOL       0.1764
      3 N29        15.6804   34.4980   16.4852 N.am        1 MOL      -0.2812
      4 C24        16.1193   35.3825   15.4633 C.3         1 MOL       0.0716
      5 C25        16.8279   36.5187   16.2572 C.3         1 MOL      -0.0105
      6 C26        16.7006   36.1210   17.7485 C.3         1 MOL       0.0394
      7 C22        16.9754   34.6225   14.4213 C.3         1 MOL       0.1003
      8 O23        18.2242   34.2147   14.9942 O.3         1 MOL      -0.2616
      9 C21        19.2247   33.5956   14.3252 C.2         1 MOL       0.3200
     10 O22        19.0788   33.2263   13.0306 O.2         1 MOL      -0.3775
     11 N20        20.3776   33.4404   15.0151 N.am        1 MOL      -0.2550
     12 C19        21.6227   32.9227   14.4987 C.3         1 MOL       0.0807
     13 C32        22.7049   34.0668   14.4569 C.3         1 MOL       0.0064
     14 C38        22.5565   35.1232   15.5044 C.ar        1 MOL      -0.0408
     15 C37        21.8570   36.3236   15.2260 C.ar        1 MOL      -0.0603
     16 C36        21.6489   37.2878   16.2307 C.ar        1 MOL      -0.0686
     17 C35        22.1250   37.0630   17.5335 C.ar        1 MOL      -0.0687
     18 C34        22.7995   35.8691   17.8309 C.ar        1 MOL      -0.0686
     19 C33        23.0114   34.9016   16.8314 C.ar        1 MOL      -0.0603
     20 C17        22.0146   31.5861   15.2344 C.3         1 MOL       0.0967
     21 O18        23.1356   31.7629   16.1128 O.3         1 MOL      -0.3877
     22 C16        22.3327   30.3644   14.2903 C.3         1 MOL       0.0579
     23 N11        21.2089   29.7341   13.6133 N.am        1 MOL      -0.2317
     24 C12        20.4762   28.6231   14.2316 C.3         1 MOL       0.0322
     25 C13        19.3282   28.9664   15.2454 C.3         1 MOL      -0.0270
     26 C14        19.8746   29.0351   16.7042 C.3         1 MOL      -0.0610
     27 C15        18.4183   30.1526   14.7622 C.3         1 MOL      -0.0518
     28 C18        17.4156   30.7748   15.7712 C.3         1 MOL      -0.0650
     29 S8         21.0982   29.8991   11.9231 S.o2        1 MOL       0.0679
     30 O10        22.3806   29.2452   11.2418 O.2         1 MOL      -0.1506
     31 O9         21.0850   31.4268   11.4699 O.2         1 MOL      -0.1506
     32 C5         19.6557   29.2261   11.2079 C.ar        1 MOL       0.1007
     33 C6         18.4029   29.8619   11.4004 C.ar        1 MOL      -0.0433
     34 C7         17.2233   29.3108   10.8669 C.ar        1 MOL      -0.0517
     35 C4         19.7158   28.0062   10.4958 C.ar        1 MOL      -0.0206
     36 C3         18.5226   27.4609    9.9926 C.ar        1 MOL       0.0595
     37 S1         18.2302   26.0139    9.1268 S.3         1 MOL       0.0026
     38 C1         16.5344   26.2774    9.0194 C.2         1 MOL       0.0809
     39 N1         16.2251   27.4382    9.6287 N.2         1 MOL      -0.2931
     40 C2         17.2850   28.0939   10.1670 C.ar        1 MOL       0.0375
     41 H1         15.1625   33.6907   16.2916 H           1 MOL       0.1855
     42 H2         15.2245   35.7782   14.9696 H           1 MOL       0.0584
     43 H3         16.3271   37.4767   16.0760 H           1 MOL       0.0313
     44 H4         17.8803   36.6154   15.9876 H           1 MOL       0.0313
     45 H5         17.6765   35.9842   18.2261 H           1 MOL       0.0503
     46 H6         16.1210   36.8566   18.3130 H           1 MOL       0.0503
     47 H7         17.1688   35.2907   13.5743 H           1 MOL       0.0634
     48 H8         16.4204   33.7518   14.0507 H           1 MOL       0.0634
     49 H9         20.3924   33.7220   15.9443 H           1 MOL       0.1873
     50 H10        21.4762   32.6588   13.4590 H           1 MOL       0.0604
     51 H11        22.6411   34.5477   13.4702 H           1 MOL       0.0449
     52 H12        23.7076   33.6350   14.5117 H           1 MOL       0.0449
     53 H13        21.4947   36.5030   14.2831 H           1 MOL       0.0557
     54 H14        21.1447   38.1523   16.0091 H           1 MOL       0.0599
     55 H15        21.9593   37.7580   18.2673 H           1 MOL       0.0559
     56 H16        23.1404   35.6946   18.7812 H           1 MOL       0.0599
     57 H17        23.5101   34.0439   17.0712 H           1 MOL       0.0557
     58 H18        21.1827   31.3149   15.8847 H           1 MOL       0.0634
     59 H19        23.2120   30.9124   16.5913 H           1 MOL       0.2100
     60 H20        22.8315   29.6010   14.8962 H           1 MOL       0.0504
     61 H21        23.0857   30.6911   13.5660 H           1 MOL       0.0504
     62 H22        21.2072   27.9645   14.7162 H           1 MOL       0.0481
     63 H23        20.0243   27.9852   13.4725 H           1 MOL       0.0481
     64 H24        18.6547   28.1000   15.2519 H           1 MOL       0.0314
     65 H25        19.1121   29.3755   17.4105 H           1 MOL       0.0233
     66 H26        20.7554   29.6737   16.7919 H           1 MOL       0.0233
     67 H27        20.1660   28.0206   17.0021 H           1 MOL       0.0233
     68 H28        17.8376   29.8026   13.9025 H           1 MOL       0.0266
     69 H29        19.0400   30.9583   14.3877 H           1 MOL       0.0266
     70 H30        16.8159   31.5390   15.2644 H           1 MOL       0.0230
     71 H31        17.9535   31.2442   16.6079 H           1 MOL       0.0230
     72 H32        16.7431   29.9983   16.1464 H           1 MOL       0.0230
     73 H33        18.3463   30.7340   11.9369 H           1 MOL       0.0580
     74 H34        16.3262   29.7814   11.0081 H           1 MOL       0.0584
     75 H35        20.5925   27.5025   10.3647 H           1 MOL       0.0592
     76 H36        15.8624   25.6523    8.5654 H           1 MOL       0.1260
@<TRIPOS>BOND
     1     1     2   2
     2     2     3  am
     3     2     6   1
     4     3     4   1
     5     4     5   1
     6     4     7   1
     7     5     6   1
     8     7     8   1
     9     8     9   1
    10     9    10   2
    11     9    11  am
    12    11    12   1
    13    12    13   1
    14    12    20   1
    15    13    14   1
    16    14    15  ar
    17    14    19  ar
    18    15    16  ar
    19    16    17  ar
    20    17    18  ar
    21    18    19  ar
    22    20    21   1
    23    20    22   1
    24    22    23   1
    25    23    24   1
    26    23    29  am
    27    24    25   1
    28    25    26   1
    29    25    27   1
    30    27    28   1
    31    29    30   2
    32    29    31   2
    33    29    32   1
    34    32    33  ar
    35    32    35  ar
    36    33    34  ar
    37    34    40  ar
    38    35    36  ar
    39    36    37   1
    40    36    40  ar
    41    37    38   1
    42    38    39   2
    43    39    40   1
    44     3    41   1
    45     4    42   1
    46     5    43   1
    47     5    44   1
    48     6    45   1
    49     6    46   1
    50     7    47   1
    51     7    48   1
    52    11    49   1
    53    12    50   1
    54    13    51   1
    55    13    52   1
    56    15    53   1
    57    16    54   1
    58    17    55   1
    59    18    56   1
    60    19    57   1
    61    20    58   1
    62    21    59   1
    63    22    60   1
    64    22    61   1
    65    24    62   1
    66    24    63   1
    67    25    64   1
    68    26    65   1
    69    26    66   1
    70    26    67   1
    71    27    68   1
    72    27    69   1
    73    28    70   1
    74    28    71   1
    75    28    72   1
    76    33    73   1
    77    34    74   1
    78    35    75   1
    79    38    76   1
@<TRIPOS>SUBSTRUCTURE
     1  MOL      2

