@<TRIPOS>MOLECULE
4djr_ligand_030
    76    79
SMALL
GAST_HUCK
****
This file was generated by PARSER (from files_GN.cpp)

@<TRIPOS>ATOM
      1 O28        14.0205   41.1993   19.7982 O.2         1 MOL      -0.3971
      2 C27        14.8544   40.6006   19.1334 C.2         1 MOL       0.1764
      3 N29        14.6698   39.3701   18.7330 N.am        1 MOL      -0.2812
      4 C24        15.6992   38.8625   17.9071 C.3         1 MOL       0.0716
      5 C25        16.7102   40.0396   17.8306 C.3         1 MOL      -0.0105
      6 C26        16.0728   41.1822   18.6518 C.3         1 MOL       0.0394
      7 C22        16.2709   37.5431   18.4788 C.3         1 MOL       0.1003
      8 O23        17.2684   37.0286   17.5874 O.3         1 MOL      -0.2616
      9 C21        17.9875   35.8879   17.7429 C.2         1 MOL       0.3200
     10 O22        17.7903   35.0919   18.8207 O.2         1 MOL      -0.3775
     11 N20        18.8542   35.5670   16.7580 N.am        1 MOL      -0.2550
     12 C19        19.6369   34.3607   16.6631 C.3         1 MOL       0.0807
     13 C32        18.8992   33.3905   15.6799 C.3         1 MOL       0.0064
     14 C38        19.3507   31.9698   15.7566 C.ar        1 MOL      -0.0408
     15 C37        20.0527   31.3556   14.6932 C.ar        1 MOL      -0.0603
     16 C36        20.4947   30.0219   14.7975 C.ar        1 MOL      -0.0686
     17 C35        20.2432   29.2852   15.9683 C.ar        1 MOL      -0.0687
     18 C34        19.5213   29.8762   17.0234 C.ar        1 MOL      -0.0686
     19 C33        19.0724   31.2017   16.9123 C.ar        1 MOL      -0.0603
     20 C17        21.0954   34.7469   16.2319 C.3         1 MOL       0.0967
     21 O18        21.7529   33.6866   15.5386 O.3         1 MOL      -0.3877
     22 C16        22.0531   35.1538   17.3914 C.3         1 MOL       0.0579
     23 N11        21.6007   36.2115   18.2686 N.am        1 MOL      -0.2317
     24 C12        21.1593   35.9233   19.6169 C.3         1 MOL       0.0322
     25 C13        22.2603   35.5987   20.7032 C.3         1 MOL      -0.0270
     26 C14        21.7521   34.4550   21.6383 C.3         1 MOL      -0.0610
     27 C15        23.6871   35.2864   20.1517 C.3         1 MOL      -0.0518
     28 C18        24.8083   35.2185   21.2171 C.3         1 MOL      -0.0650
     29 S8         21.5869   37.8188   17.7209 S.o2        1 MOL       0.0679
     30 O10        20.1757   38.4646   18.0690 O.2         1 MOL      -0.1506
     31 O9         21.5696   37.8793   16.1307 O.2         1 MOL      -0.1506
     32 C5         22.8552   38.8817   18.2732 C.ar        1 MOL       0.1007
     33 C6         23.9680   39.1725   17.4382 C.ar        1 MOL      -0.0433
     34 C7         24.9477   40.1077   17.8410 C.ar        1 MOL      -0.0517
     35 C4         22.7503   39.5075   19.5359 C.ar        1 MOL      -0.0206
     36 C3         23.7324   40.4353   19.9126 C.ar        1 MOL       0.0595
     37 S1         23.8869   41.3966   21.3227 S.3         1 MOL       0.0026
     38 C1         25.3333   42.1635   20.7952 C.2         1 MOL       0.0809
     39 N1         25.6761   41.6826   19.5777 N.2         1 MOL      -0.2931
     40 C2         24.8219   40.7493   19.0840 C.ar        1 MOL       0.0375
     41 H1         13.8764   38.8588   18.9543 H           1 MOL       0.1855
     42 H2         15.2796   38.6668   16.9161 H           1 MOL       0.0584
     43 H3         16.8540   40.3518   16.7911 H           1 MOL       0.0313
     44 H4         17.6873   39.7763   18.2474 H           1 MOL       0.0313
     45 H5         16.7087   41.4789   19.4888 H           1 MOL       0.0503
     46 H6         15.8558   42.0504   18.0254 H           1 MOL       0.0503
     47 H7         15.4626   36.8138   18.5713 H           1 MOL       0.0634
     48 H8         16.7089   37.7100   19.4668 H           1 MOL       0.0634
     49 H9         18.8775   36.1686   16.0006 H           1 MOL       0.1873
     50 H10        19.6893   33.8716   17.6429 H           1 MOL       0.0604
     51 H11        18.9979   33.7803   14.6656 H           1 MOL       0.0449
     52 H12        17.8316   33.3960   15.9091 H           1 MOL       0.0449
     53 H13        20.2566   31.8787   13.8389 H           1 MOL       0.0557
     54 H14        21.0156   29.5955   14.0273 H           1 MOL       0.0599
     55 H15        20.5683   28.3168   16.0445 H           1 MOL       0.0559
     56 H16        19.3363   29.3387   17.8728 H           1 MOL       0.0599
     57 H17        18.5353   31.6025   17.6845 H           1 MOL       0.0557
     58 H18        21.0471   35.5642   15.5128 H           1 MOL       0.0634
     59 H19        21.7916   32.9492   16.1797 H           1 MOL       0.2100
     60 H20        23.0199   35.4479   16.9738 H           1 MOL       0.0504
     61 H21        22.2348   34.2518   17.9778 H           1 MOL       0.0504
     62 H22        20.4556   35.0915   19.5487 H           1 MOL       0.0481
     63 H23        20.5496   36.7497   20.0063 H           1 MOL       0.0481
     64 H24        22.3662   36.4935   21.3273 H           1 MOL       0.0314
     65 H25        22.4327   34.2903   22.4777 H           1 MOL       0.0233
     66 H26        21.6560   33.5196   21.0769 H           1 MOL       0.0233
     67 H27        20.7714   34.7054   22.0554 H           1 MOL       0.0233
     68 H28        23.9622   36.0720   19.4488 H           1 MOL       0.0266
     69 H29        23.6757   34.3331   19.6157 H           1 MOL       0.0266
     70 H30        25.7829   35.1975   20.7212 H           1 MOL       0.0230
     71 H31        24.7111   34.3060   21.8152 H           1 MOL       0.0230
     72 H32        24.7624   36.0931   21.8727 H           1 MOL       0.0230
     73 H33        24.0664   38.7256   16.5203 H           1 MOL       0.0580
     74 H34        25.7399   40.3219   17.2269 H           1 MOL       0.0584
     75 H35        21.9620   39.3159   20.1549 H           1 MOL       0.0592
     76 H36        25.8559   42.8696   21.3178 H           1 MOL       0.1260
@<TRIPOS>BOND
     1     1     2   2
     2     2     3  am
     3     2     6   1
     4     3     4   1
     5     4     5   1
     6     4     7   1
     7     5     6   1
     8     7     8   1
     9     8     9   1
    10     9    10   2
    11     9    11  am
    12    11    12   1
    13    12    13   1
    14    12    20   1
    15    13    14   1
    16    14    15  ar
    17    14    19  ar
    18    15    16  ar
    19    16    17  ar
    20    17    18  ar
    21    18    19  ar
    22    20    21   1
    23    20    22   1
    24    22    23   1
    25    23    24   1
    26    23    29  am
    27    24    25   1
    28    25    26   1
    29    25    27   1
    30    27    28   1
    31    29    30   2
    32    29    31   2
    33    29    32   1
    34    32    33  ar
    35    32    35  ar
    36    33    34  ar
    37    34    40  ar
    38    35    36  ar
    39    36    37   1
    40    36    40  ar
    41    37    38   1
    42    38    39   2
    43    39    40   1
    44     3    41   1
    45     4    42   1
    46     5    43   1
    47     5    44   1
    48     6    45   1
    49     6    46   1
    50     7    47   1
    51     7    48   1
    52    11    49   1
    53    12    50   1
    54    13    51   1
    55    13    52   1
    56    15    53   1
    57    16    54   1
    58    17    55   1
    59    18    56   1
    60    19    57   1
    61    20    58   1
    62    21    59   1
    63    22    60   1
    64    22    61   1
    65    24    62   1
    66    24    63   1
    67    25    64   1
    68    26    65   1
    69    26    66   1
    70    26    67   1
    71    27    68   1
    72    27    69   1
    73    28    70   1
    74    28    71   1
    75    28    72   1
    76    33    73   1
    77    34    74   1
    78    35    75   1
    79    38    76   1
@<TRIPOS>SUBSTRUCTURE
     1  MOL      2

