@<TRIPOS>MOLECULE
4djr_ligand_035
    76    79
SMALL
GAST_HUCK
****
This file was generated by PARSER (from files_GN.cpp)

@<TRIPOS>ATOM
      1 O28        23.5570   42.1088   12.0925 O.2         1 MOL      -0.3971
      2 C27        22.9947   41.6705   13.0862 C.2         1 MOL       0.1764
      3 N29        22.9802   40.3955   13.3854 N.am        1 MOL      -0.2812
      4 C24        22.2772   40.0721   14.5714 C.3         1 MOL       0.0716
      5 C25        21.7595   41.4534   15.0571 C.3         1 MOL      -0.0105
      6 C26        22.3099   42.4821   14.0449 C.3         1 MOL       0.0394
      7 C22        21.1774   39.0231   14.2732 C.3         1 MOL       0.1003
      8 O23        20.5226   38.5583   15.4642 O.3         1 MOL      -0.2616
      9 C21        20.8756   37.4784   16.2147 C.2         1 MOL       0.3200
     10 O22        21.9893   36.7442   15.9490 O.2         1 MOL      -0.3775
     11 N20        20.0041   37.1325   17.1884 N.am        1 MOL      -0.2550
     12 C19        19.9913   35.9442   18.0054 C.3         1 MOL       0.0807
     13 C32        19.9843   36.3948   19.5114 C.3         1 MOL       0.0064
     14 C38        21.3585   36.4955   20.0882 C.ar        1 MOL      -0.0408
     15 C37        22.1419   37.6603   19.9233 C.ar        1 MOL      -0.0603
     16 C36        23.4473   37.7260   20.4449 C.ar        1 MOL      -0.0686
     17 C35        23.9845   36.6237   21.1318 C.ar        1 MOL      -0.0687
     18 C34        23.2308   35.4479   21.2827 C.ar        1 MOL      -0.0686
     19 C33        21.9237   35.3845   20.7632 C.ar        1 MOL      -0.0603
     20 C17        18.7597   35.0677   17.5797 C.3         1 MOL       0.0967
     21 O18        18.3613   34.1469   18.5995 O.3         1 MOL      -0.3877
     22 C16        18.9452   34.3215   16.2223 C.3         1 MOL       0.0579
     23 N11        19.4658   32.9768   16.3187 N.am        1 MOL      -0.2317
     24 C12        20.8614   32.6787   16.5959 C.3         1 MOL       0.0322
     25 C13        21.9427   33.3993   15.7155 C.3         1 MOL      -0.0270
     26 C14        23.3647   33.1859   16.3125 C.3         1 MOL      -0.0610
     27 C15        21.8461   33.0607   14.1845 C.3         1 MOL      -0.0518
     28 C18        22.6382   31.8289   13.6804 C.3         1 MOL      -0.0650
     29 S8         18.3459   31.6966   16.3760 S.o2        1 MOL       0.0679
     30 O10        16.9492   32.1817   16.9706 O.2         1 MOL      -0.1506
     31 O9         18.8040   30.6033   17.4390 O.2         1 MOL      -0.1506
     32 C5         18.1369   30.9435   14.8191 C.ar        1 MOL       0.1007
     33 C6         16.9136   31.0546   14.1080 C.ar        1 MOL      -0.0433
     34 C7         16.7805   30.4958   12.8153 C.ar        1 MOL      -0.0517
     35 C4         19.2330   30.2898   14.2169 C.ar        1 MOL      -0.0206
     36 C3         19.0839   29.7550   12.9290 C.ar        1 MOL       0.0595
     37 S1         20.2008   28.9380   11.9128 S.3         1 MOL       0.0026
     38 C1         19.0816   28.7624   10.6173 C.2         1 MOL       0.0809
     39 N1         17.9023   29.3175   10.9699 N.2         1 MOL      -0.2931
     40 C2         17.8826   29.8632   12.2132 C.ar        1 MOL       0.0375
     41 H1         23.4171   39.7226   12.8348 H           1 MOL       0.1855
     42 H2         22.9923   39.6582   15.2915 H           1 MOL       0.0584
     43 H3         22.1249   41.6740   16.0626 H           1 MOL       0.0313
     44 H4         20.6660   41.4923   15.0727 H           1 MOL       0.0313
     45 H5         21.5030   43.0388   13.5606 H           1 MOL       0.0503
     46 H6         23.0090   43.1806   14.5171 H           1 MOL       0.0503
     47 H7         21.6047   38.1758   13.7210 H           1 MOL       0.0634
     48 H8         20.4120   39.4718   13.6351 H           1 MOL       0.0634
     49 H9         19.2375   37.7217   17.3121 H           1 MOL       0.1873
     50 H10        20.8909   35.3495   17.8393 H           1 MOL       0.0604
     51 H11        19.4204   35.6887   20.1291 H           1 MOL       0.0449
     52 H12        19.4771   37.3619   19.6266 H           1 MOL       0.0449
     53 H13        21.7594   38.4637   19.4195 H           1 MOL       0.0557
     54 H14        23.9987   38.5760   20.3217 H           1 MOL       0.0599
     55 H15        24.9341   36.6716   21.5033 H           1 MOL       0.0559
     56 H16        23.6283   34.6395   21.7699 H           1 MOL       0.0599
     57 H17        21.3930   34.5113   20.8711 H           1 MOL       0.0557
     58 H18        17.9131   35.7481   17.4881 H           1 MOL       0.0634
     59 H19        19.1091   33.5243   18.7151 H           1 MOL       0.2100
     60 H20        19.5787   34.9111   15.5631 H           1 MOL       0.0504
     61 H21        17.9769   34.3011   15.7207 H           1 MOL       0.0504
     62 H22        21.0539   31.6078   16.5062 H           1 MOL       0.0481
     63 H23        21.0417   32.9329   17.6450 H           1 MOL       0.0481
     64 H24        21.7574   34.4704   15.8020 H           1 MOL       0.0314
     65 H25        24.1094   33.7139   15.7101 H           1 MOL       0.0233
     66 H26        23.6186   32.1216   16.3339 H           1 MOL       0.0233
     67 H27        23.4148   33.5715   17.3273 H           1 MOL       0.0233
     68 H28        22.2038   33.9351   13.6184 H           1 MOL       0.0266
     69 H29        20.7921   32.8975   13.9179 H           1 MOL       0.0266
     70 H30        22.3830   31.6209   12.6462 H           1 MOL       0.0230
     71 H31        22.4143   30.9503   14.2804 H           1 MOL       0.0230
     72 H32        23.7150   32.0108   13.7330 H           1 MOL       0.0230
     73 H33        16.1053   31.5299   14.5247 H           1 MOL       0.0580
     74 H34        15.8879   30.5510   12.3193 H           1 MOL       0.0584
     75 H35        20.1121   30.1687   14.7206 H           1 MOL       0.0592
     76 H36        19.2773   28.3105    9.7292 H           1 MOL       0.1260
@<TRIPOS>BOND
     1     1     2   2
     2     2     3  am
     3     2     6   1
     4     3     4   1
     5     4     5   1
     6     4     7   1
     7     5     6   1
     8     7     8   1
     9     8     9   1
    10     9    10   2
    11     9    11  am
    12    11    12   1
    13    12    13   1
    14    12    20   1
    15    13    14   1
    16    14    15  ar
    17    14    19  ar
    18    15    16  ar
    19    16    17  ar
    20    17    18  ar
    21    18    19  ar
    22    20    21   1
    23    20    22   1
    24    22    23   1
    25    23    24   1
    26    23    29  am
    27    24    25   1
    28    25    26   1
    29    25    27   1
    30    27    28   1
    31    29    30   2
    32    29    31   2
    33    29    32   1
    34    32    33  ar
    35    32    35  ar
    36    33    34  ar
    37    34    40  ar
    38    35    36  ar
    39    36    37   1
    40    36    40  ar
    41    37    38   1
    42    38    39   2
    43    39    40   1
    44     3    41   1
    45     4    42   1
    46     5    43   1
    47     5    44   1
    48     6    45   1
    49     6    46   1
    50     7    47   1
    51     7    48   1
    52    11    49   1
    53    12    50   1
    54    13    51   1
    55    13    52   1
    56    15    53   1
    57    16    54   1
    58    17    55   1
    59    18    56   1
    60    19    57   1
    61    20    58   1
    62    21    59   1
    63    22    60   1
    64    22    61   1
    65    24    62   1
    66    24    63   1
    67    25    64   1
    68    26    65   1
    69    26    66   1
    70    26    67   1
    71    27    68   1
    72    27    69   1
    73    28    70   1
    74    28    71   1
    75    28    72   1
    76    33    73   1
    77    34    74   1
    78    35    75   1
    79    38    76   1
@<TRIPOS>SUBSTRUCTURE
     1  MOL      2

