@<TRIPOS>MOLECULE
4djr_ligand_063
    76    79
SMALL
GAST_HUCK
****
This file was generated by PARSER (from files_GN.cpp)

@<TRIPOS>ATOM
      1 O28        21.5441   41.5063   21.5574 O.2         1 MOL      -0.3971
      2 C27        21.7248   41.5968   20.3514 C.2         1 MOL       0.1764
      3 N29        21.6880   40.5530   19.5663 N.am        1 MOL      -0.2812
      4 C24        22.0308   40.8082   18.2218 C.3         1 MOL       0.0716
      5 C25        22.0937   42.3591   18.1867 C.3         1 MOL      -0.0105
      6 C26        22.0882   42.7984   19.6674 C.3         1 MOL       0.0394
      7 C22        23.3653   40.1121   17.8276 C.3         1 MOL       0.1003
      8 O23        23.3965   38.6871   18.0247 O.3         1 MOL      -0.2616
      9 C21        23.3183   38.0022   19.2008 C.2         1 MOL       0.3200
     10 O22        23.1826   38.6660   20.3753 O.2         1 MOL      -0.3775
     11 N20        23.4108   36.6506   19.1473 N.am        1 MOL      -0.2550
     12 C19        23.2130   35.7081   20.2227 C.3         1 MOL       0.0807
     13 C32        24.0257   36.0062   21.5330 C.3         1 MOL       0.0064
     14 C38        25.5061   36.0419   21.3503 C.ar        1 MOL      -0.0408
     15 C37        26.2248   34.8530   21.0779 C.ar        1 MOL      -0.0603
     16 C36        27.6267   34.8747   20.9435 C.ar        1 MOL      -0.0686
     17 C35        28.3232   36.0887   21.0540 C.ar        1 MOL      -0.0687
     18 C34        27.6231   37.2798   21.3120 C.ar        1 MOL      -0.0686
     19 C33        26.2259   37.2523   21.4784 C.ar        1 MOL      -0.0603
     20 C17        21.6760   35.5161   20.4797 C.3         1 MOL       0.0967
     21 O18        21.4629   34.7471   21.6695 O.3         1 MOL      -0.3877
     22 C16        20.9109   34.7642   19.3441 C.3         1 MOL       0.0579
     23 N11        20.7877   35.4321   18.0627 N.am        1 MOL      -0.2317
     24 C12        20.1476   36.7262   17.8990 C.3         1 MOL       0.0322
     25 C13        18.8737   37.0430   18.7564 C.3         1 MOL      -0.0270
     26 C14        18.6809   38.5785   18.9322 C.3         1 MOL      -0.0610
     27 C15        17.5781   36.3316   18.2541 C.3         1 MOL      -0.0518
     28 C18        16.8382   36.9849   17.0608 C.3         1 MOL      -0.0650
     29 S8         21.4643   34.6813   16.6976 S.o2        1 MOL       0.0679
     30 O10        22.8088   33.9291   17.0928 O.2         1 MOL      -0.1506
     31 O9         22.0065   35.7905   15.6955 O.2         1 MOL      -0.1506
     32 C5         20.4215   33.5570   15.8674 C.ar        1 MOL       0.1007
     33 C6         19.3907   32.8866   16.5687 C.ar        1 MOL      -0.0433
     34 C7         18.5374   31.9775   15.9080 C.ar        1 MOL      -0.0517
     35 C4         20.6105   33.2996   14.4911 C.ar        1 MOL      -0.0206
     36 C3         19.7479   32.3969   13.8512 C.ar        1 MOL       0.0595
     37 S1         19.6690   31.8763   12.2196 S.3         1 MOL       0.0026
     38 C1         18.3242   30.8364   12.4762 C.2         1 MOL       0.0809
     39 N1         17.9598   30.8982   13.7753 N.2         1 MOL      -0.2931
     40 C2         18.7165   31.7359   14.5341 C.ar        1 MOL       0.0375
     41 H1         21.5147   39.6615   19.8973 H           1 MOL       0.1855
     42 H2         21.2255   40.4458   17.5765 H           1 MOL       0.0584
     43 H3         21.2067   42.7576   17.6849 H           1 MOL       0.0313
     44 H4         22.9811   42.7404   17.6712 H           1 MOL       0.0313
     45 H5         23.0838   43.1265   19.9849 H           1 MOL       0.0503
     46 H6         21.3594   43.5940   19.8444 H           1 MOL       0.0503
     47 H7         24.2036   40.5605   18.3706 H           1 MOL       0.0634
     48 H8         23.5321   40.2931   16.7631 H           1 MOL       0.0634
     49 H9         23.5588   36.2628   18.2669 H           1 MOL       0.1873
     50 H10        23.5932   34.7551   19.8487 H           1 MOL       0.0604
     51 H11        23.8063   35.2276   22.2709 H           1 MOL       0.0449
     52 H12        23.6654   36.9418   21.9755 H           1 MOL       0.0449
     53 H13        25.7312   33.9626   20.9891 H           1 MOL       0.0557
     54 H14        28.1350   34.0086   20.7598 H           1 MOL       0.0599
     55 H15        29.3390   36.1071   20.9467 H           1 MOL       0.0559
     56 H16        28.1254   38.1649   21.3798 H           1 MOL       0.0599
     57 H17        25.7401   38.1269   21.6886 H           1 MOL       0.0557
     58 H18        21.2219   36.4963   20.6525 H           1 MOL       0.0634
     59 H19        20.5281   34.9188   21.9188 H           1 MOL       0.2100
     60 H20        19.9019   34.5432   19.6944 H           1 MOL       0.0504
     61 H21        21.3916   33.7846   19.2388 H           1 MOL       0.0504
     62 H22        19.8717   36.8791   16.8532 H           1 MOL       0.0481
     63 H23        20.9127   37.4770   18.1134 H           1 MOL       0.0481
     64 H24        19.0581   36.6753   19.7663 H           1 MOL       0.0314
     65 H25        17.7314   38.7935   19.4340 H           1 MOL       0.0233
     66 H26        18.6900   39.0831   17.9611 H           1 MOL       0.0233
     67 H27        19.4842   38.9953   19.5523 H           1 MOL       0.0233
     68 H28        16.8776   36.2844   19.0911 H           1 MOL       0.0266
     69 H29        17.8230   35.3037   17.9855 H           1 MOL       0.0266
     70 H30        15.9816   36.3624   16.7870 H           1 MOL       0.0230
     71 H31        17.4936   37.0680   16.1937 H           1 MOL       0.0230
     72 H32        16.4715   37.9800   17.3282 H           1 MOL       0.0230
     73 H33        19.2475   33.0486   17.5675 H           1 MOL       0.0580
     74 H34        17.7931   31.4990   16.4236 H           1 MOL       0.0584
     75 H35        21.3518   33.7552   13.9595 H           1 MOL       0.0592
     76 H36        17.8689   30.2711   11.7591 H           1 MOL       0.1260
@<TRIPOS>BOND
     1     1     2   2
     2     2     3  am
     3     2     6   1
     4     3     4   1
     5     4     5   1
     6     4     7   1
     7     5     6   1
     8     7     8   1
     9     8     9   1
    10     9    10   2
    11     9    11  am
    12    11    12   1
    13    12    13   1
    14    12    20   1
    15    13    14   1
    16    14    15  ar
    17    14    19  ar
    18    15    16  ar
    19    16    17  ar
    20    17    18  ar
    21    18    19  ar
    22    20    21   1
    23    20    22   1
    24    22    23   1
    25    23    24   1
    26    23    29  am
    27    24    25   1
    28    25    26   1
    29    25    27   1
    30    27    28   1
    31    29    30   2
    32    29    31   2
    33    29    32   1
    34    32    33  ar
    35    32    35  ar
    36    33    34  ar
    37    34    40  ar
    38    35    36  ar
    39    36    37   1
    40    36    40  ar
    41    37    38   1
    42    38    39   2
    43    39    40   1
    44     3    41   1
    45     4    42   1
    46     5    43   1
    47     5    44   1
    48     6    45   1
    49     6    46   1
    50     7    47   1
    51     7    48   1
    52    11    49   1
    53    12    50   1
    54    13    51   1
    55    13    52   1
    56    15    53   1
    57    16    54   1
    58    17    55   1
    59    18    56   1
    60    19    57   1
    61    20    58   1
    62    21    59   1
    63    22    60   1
    64    22    61   1
    65    24    62   1
    66    24    63   1
    67    25    64   1
    68    26    65   1
    69    26    66   1
    70    26    67   1
    71    27    68   1
    72    27    69   1
    73    28    70   1
    74    28    71   1
    75    28    72   1
    76    33    73   1
    77    34    74   1
    78    35    75   1
    79    38    76   1
@<TRIPOS>SUBSTRUCTURE
     1  MOL      2

