@<TRIPOS>MOLECULE
4djr_ligand_047
    76    79
SMALL
GAST_HUCK
****
This file was generated by PARSER (from files_GN.cpp)

@<TRIPOS>ATOM
      1 O28        14.1628   41.4564   20.3014 O.2         1 MOL      -0.3971
      2 C27        14.8627   40.8562   19.4995 C.2         1 MOL       0.1764
      3 N29        14.5225   39.6994   18.9838 N.am        1 MOL      -0.2812
      4 C24        15.4675   39.1561   18.0817 C.3         1 MOL       0.0716
      5 C25        16.6109   40.2102   18.0847 C.3         1 MOL      -0.0105
      6 C26        16.1458   41.3145   19.0601 C.3         1 MOL       0.0394
      7 C22        15.8850   37.7342   18.5148 C.3         1 MOL       0.1003
      8 O23        16.8638   37.2116   17.6130 O.3         1 MOL      -0.2616
      9 C21        17.4513   35.9874   17.6972 C.2         1 MOL       0.3200
     10 O22        17.0992   35.1259   18.6806 O.2         1 MOL      -0.3775
     11 N20        18.3786   35.6826   16.7660 N.am        1 MOL      -0.2550
     12 C19        19.0975   34.4468   16.6455 C.3         1 MOL       0.0807
     13 C32        18.8517   33.8532   15.2070 C.3         1 MOL       0.0064
     14 C38        18.1481   32.5391   15.2470 C.ar        1 MOL      -0.0408
     15 C37        18.8430   31.3267   15.0158 C.ar        1 MOL      -0.0603
     16 C36        18.1950   30.0864   15.1761 C.ar        1 MOL      -0.0686
     17 C35        16.8438   30.0421   15.5578 C.ar        1 MOL      -0.0687
     18 C34        16.1339   31.2385   15.7792 C.ar        1 MOL      -0.0686
     19 C33        16.7818   32.4770   15.6164 C.ar        1 MOL      -0.0603
     20 C17        20.6088   34.6010   17.0450 C.3         1 MOL       0.0967
     21 O18        20.7965   34.3081   18.4303 O.3         1 MOL      -0.3877
     22 C16        21.3443   35.9403   16.7065 C.3         1 MOL       0.0579
     23 N11        20.8866   37.1900   17.3001 N.am        1 MOL      -0.2317
     24 C12        20.6910   38.3392   16.4429 C.3         1 MOL       0.0322
     25 C13        22.0114   38.8905   15.7919 C.3         1 MOL      -0.0270
     26 C14        21.7519   39.4117   14.3501 C.3         1 MOL      -0.0610
     27 C15        22.7076   39.9748   16.6717 C.3         1 MOL      -0.0518
     28 C18        24.2191   40.1551   16.4077 C.3         1 MOL      -0.0650
     29 S8         20.7865   37.3421   18.9959 S.o2        1 MOL       0.0679
     30 O10        19.4965   36.5394   19.4839 O.2         1 MOL      -0.1506
     31 O9         20.3398   38.8229   19.4051 O.2         1 MOL      -0.1506
     32 C5         22.1466   36.9694   20.0231 C.ar        1 MOL       0.1007
     33 C6         22.2024   35.7368   20.7218 C.ar        1 MOL      -0.0433
     34 C7         23.2527   35.4472   21.6187 C.ar        1 MOL      -0.0517
     35 C4         23.1657   37.9237   20.2508 C.ar        1 MOL      -0.0206
     36 C3         24.1911   37.6323   21.1605 C.ar        1 MOL       0.0595
     37 S1         25.5287   38.5690   21.6938 S.3         1 MOL       0.0026
     38 C1         26.1093   37.3580   22.7712 C.2         1 MOL       0.0809
     39 N1         25.2943   36.2811   22.7101 N.2         1 MOL      -0.2931
     40 C2         24.2519   36.4110   21.8453 C.ar        1 MOL       0.0375
     41 H1         13.7014   39.2311   19.2191 H           1 MOL       0.1855
     42 H2         15.0087   39.1079   17.0875 H           1 MOL       0.0584
     43 H3         16.7568   40.6228   17.0830 H           1 MOL       0.0313
     44 H4         17.5630   39.7844   18.4197 H           1 MOL       0.0313
     45 H5         16.8255   41.4078   19.9080 H           1 MOL       0.0503
     46 H6         16.0528   42.2791   18.5537 H           1 MOL       0.0503
     47 H7         15.0068   37.0835   18.5070 H           1 MOL       0.0634
     48 H8         16.2995   37.7625   19.5287 H           1 MOL       0.0634
     49 H9         18.5682   36.3600   16.0974 H           1 MOL       0.1873
     50 H10        18.6859   33.7320   17.3747 H           1 MOL       0.0604
     51 H11        19.8020   33.7561   14.6741 H           1 MOL       0.0449
     52 H12        18.2468   34.5318   14.5972 H           1 MOL       0.0449
     53 H13        19.8322   31.3371   14.7596 H           1 MOL       0.0557
     54 H14        18.7098   29.2163   15.0235 H           1 MOL       0.0599
     55 H15        16.3773   29.1395   15.6906 H           1 MOL       0.0559
     56 H16        15.1516   31.2038   16.0592 H           1 MOL       0.0599
     57 H17        16.2563   33.3364   15.8005 H           1 MOL       0.0557
     58 H18        21.1677   33.8048   16.5378 H           1 MOL       0.0634
     59 H19        20.4876   33.3814   18.5466 H           1 MOL       0.2100
     60 H20        21.3208   36.0083   15.6151 H           1 MOL       0.0504
     61 H21        22.3916   35.8175   16.9833 H           1 MOL       0.0504
     62 H22        20.1780   39.1579   16.9554 H           1 MOL       0.0481
     63 H23        19.9958   38.0321   15.6591 H           1 MOL       0.0481
     64 H24        22.7049   38.0513   15.6935 H           1 MOL       0.0314
     65 H25        22.6787   39.7466   13.8809 H           1 MOL       0.0233
     66 H26        21.0482   40.2467   14.3661 H           1 MOL       0.0233
     67 H27        21.3331   38.6164   13.7266 H           1 MOL       0.0233
     68 H28        22.5943   39.7078   17.7164 H           1 MOL       0.0266
     69 H29        22.2020   40.9341   16.5453 H           1 MOL       0.0266
     70 H30        24.6157   40.9402   17.0529 H           1 MOL       0.0230
     71 H31        24.4043   40.4322   15.3704 H           1 MOL       0.0230
     72 H32        24.7511   39.2275   16.6266 H           1 MOL       0.0230
     73 H33        21.4628   35.0424   20.6071 H           1 MOL       0.0580
     74 H34        23.2716   34.5535   22.1211 H           1 MOL       0.0584
     75 H35        23.1502   38.8351   19.8067 H           1 MOL       0.0592
     76 H36        26.9316   37.4427   23.3694 H           1 MOL       0.1260
@<TRIPOS>BOND
     1     1     2   2
     2     2     3  am
     3     2     6   1
     4     3     4   1
     5     4     5   1
     6     4     7   1
     7     5     6   1
     8     7     8   1
     9     8     9   1
    10     9    10   2
    11     9    11  am
    12    11    12   1
    13    12    13   1
    14    12    20   1
    15    13    14   1
    16    14    15  ar
    17    14    19  ar
    18    15    16  ar
    19    16    17  ar
    20    17    18  ar
    21    18    19  ar
    22    20    21   1
    23    20    22   1
    24    22    23   1
    25    23    24   1
    26    23    29  am
    27    24    25   1
    28    25    26   1
    29    25    27   1
    30    27    28   1
    31    29    30   2
    32    29    31   2
    33    29    32   1
    34    32    33  ar
    35    32    35  ar
    36    33    34  ar
    37    34    40  ar
    38    35    36  ar
    39    36    37   1
    40    36    40  ar
    41    37    38   1
    42    38    39   2
    43    39    40   1
    44     3    41   1
    45     4    42   1
    46     5    43   1
    47     5    44   1
    48     6    45   1
    49     6    46   1
    50     7    47   1
    51     7    48   1
    52    11    49   1
    53    12    50   1
    54    13    51   1
    55    13    52   1
    56    15    53   1
    57    16    54   1
    58    17    55   1
    59    18    56   1
    60    19    57   1
    61    20    58   1
    62    21    59   1
    63    22    60   1
    64    22    61   1
    65    24    62   1
    66    24    63   1
    67    25    64   1
    68    26    65   1
    69    26    66   1
    70    26    67   1
    71    27    68   1
    72    27    69   1
    73    28    70   1
    74    28    71   1
    75    28    72   1
    76    33    73   1
    77    34    74   1
    78    35    75   1
    79    38    76   1
@<TRIPOS>SUBSTRUCTURE
     1  MOL      2

