@<TRIPOS>MOLECULE
4djr_ligand_012
    76    79
SMALL
GAST_HUCK
****
This file was generated by PARSER (from files_GN.cpp)

@<TRIPOS>ATOM
      1 O28        24.9222   38.1662   24.0400 O.2         1 MOL      -0.3971
      2 C27        25.3130   37.5405   23.0694 C.2         1 MOL       0.1764
      3 N29        24.4939   36.9676   22.2227 N.am        1 MOL      -0.2812
      4 C24        25.1221   36.2997   21.1488 C.3         1 MOL       0.0716
      5 C25        26.6297   36.4379   21.4966 C.3         1 MOL      -0.0105
      6 C26        26.6882   37.4072   22.6990 C.3         1 MOL       0.0394
      7 C22        24.5631   34.8486   20.9905 C.3         1 MOL       0.1003
      8 O23        23.7828   34.6665   19.8055 O.3         1 MOL      -0.2616
      9 C21        22.7381   35.4007   19.3384 C.2         1 MOL       0.3200
     10 O22        22.2919   36.4894   20.0086 O.2         1 MOL      -0.3775
     11 N20        22.2134   35.0081   18.1599 N.am        1 MOL      -0.2550
     12 C19        21.2802   35.7237   17.3326 C.3         1 MOL       0.0807
     13 C32        21.8628   35.9044   15.8886 C.3         1 MOL       0.0064
     14 C38        22.5773   34.7324   15.3022 C.ar        1 MOL      -0.0408
     15 C37        21.9417   33.8332   14.4195 C.ar        1 MOL      -0.0603
     16 C36        22.6518   32.7516   13.8621 C.ar        1 MOL      -0.0686
     17 C35        24.0016   32.5453   14.1961 C.ar        1 MOL      -0.0687
     18 C34        24.6467   33.4262   15.0781 C.ar        1 MOL      -0.0686
     19 C33        23.9447   34.5232   15.6120 C.ar        1 MOL      -0.0603
     20 C17        19.8385   35.0992   17.4666 C.3         1 MOL       0.0967
     21 O18        19.2849   34.7288   16.2012 O.3         1 MOL      -0.3877
     22 C16        18.8175   35.9623   18.2988 C.3         1 MOL       0.0579
     23 N11        17.8743   36.7945   17.5623 N.am        1 MOL      -0.2317
     24 C12        16.6602   36.2464   16.9605 C.3         1 MOL       0.0322
     25 C13        15.7781   35.2809   17.8408 C.3         1 MOL      -0.0270
     26 C14        14.2561   35.4769   17.5838 C.3         1 MOL      -0.0610
     27 C15        16.1780   33.7627   17.7456 C.3         1 MOL      -0.0518
     28 C18        15.7465   33.0044   16.4685 C.3         1 MOL      -0.0650
     29 S8         18.1490   38.4758   17.5123 S.o2        1 MOL       0.0679
     30 O10        17.5399   39.1255   18.8277 O.2         1 MOL      -0.1506
     31 O9         17.3542   39.1508   16.3078 O.2         1 MOL      -0.1506
     32 C5         19.8004   38.9954   17.2691 C.ar        1 MOL       0.1007
     33 C6         20.3313   39.1317   15.9651 C.ar        1 MOL      -0.0433
     34 C7         21.6965   39.4351   15.7632 C.ar        1 MOL      -0.0517
     35 C4         20.6440   39.2032   18.3899 C.ar        1 MOL      -0.0206
     36 C3         22.0070   39.4576   18.1688 C.ar        1 MOL       0.0595
     37 S1         23.3152   39.6218   19.2679 S.3         1 MOL       0.0026
     38 C1         24.4938   39.8279   18.0344 C.2         1 MOL       0.0809
     39 N1         23.8881   39.7719   16.8287 N.2         1 MOL      -0.2931
     40 C2         22.5443   39.5689   16.8761 C.ar        1 MOL       0.0375
     41 H1         23.5322   37.0152   22.3089 H           1 MOL       0.1855
     42 H2         24.9117   36.8760   20.2463 H           1 MOL       0.0584
     43 H3         27.1993   36.8364   20.6528 H           1 MOL       0.0313
     44 H4         27.0666   35.4802   21.7834 H           1 MOL       0.0313
     45 H5         27.2793   36.9930   23.5204 H           1 MOL       0.0503
     46 H6         27.0919   38.3842   22.4124 H           1 MOL       0.0503
     47 H7         23.9580   34.5584   21.8543 H           1 MOL       0.0634
     48 H8         25.3834   34.1346   20.9193 H           1 MOL       0.0634
     49 H9         22.5355   34.1620   17.8129 H           1 MOL       0.1873
     50 H10        21.2220   36.7370   17.7152 H           1 MOL       0.0604
     51 H11        22.5769   36.7310   15.9109 H           1 MOL       0.0449
     52 H12        21.0746   36.2413   15.2107 H           1 MOL       0.0449
     53 H13        20.9570   33.9608   14.1728 H           1 MOL       0.0557
     54 H14        22.1880   32.1115   13.2131 H           1 MOL       0.0599
     55 H15        24.5185   31.7598   13.7934 H           1 MOL       0.0559
     56 H16        25.6253   33.2778   15.3306 H           1 MOL       0.0599
     57 H17        24.4369   35.1682   16.2303 H           1 MOL       0.0557
     58 H18        19.9350   34.1446   17.9875 H           1 MOL       0.0634
     59 H19        19.1474   35.5655   15.7176 H           1 MOL       0.2100
     60 H20        19.3722   36.5619   19.0257 H           1 MOL       0.0504
     61 H21        18.2485   35.2916   18.9393 H           1 MOL       0.0504
     62 H22        16.9362   35.7286   16.0353 H           1 MOL       0.0481
     63 H23        16.0256   37.0604   16.6172 H           1 MOL       0.0481
     64 H24        15.9292   35.5758   18.8840 H           1 MOL       0.0314
     65 H25        13.6644   34.7746   18.1808 H           1 MOL       0.0233
     66 H26        14.0233   35.3216   16.5306 H           1 MOL       0.0233
     67 H27        13.9531   36.4890   17.8601 H           1 MOL       0.0233
     68 H28        15.7455   33.2358   18.6030 H           1 MOL       0.0266
     69 H29        17.2578   33.6559   17.8325 H           1 MOL       0.0266
     70 H30        16.1774   32.0020   16.4779 H           1 MOL       0.0230
     71 H31        16.0871   33.5205   15.5708 H           1 MOL       0.0230
     72 H32        14.6612   32.9073   16.4348 H           1 MOL       0.0230
     73 H33        19.7412   38.9900   15.1454 H           1 MOL       0.0580
     74 H34        22.0760   39.5087   14.8187 H           1 MOL       0.0584
     75 H35        20.2913   39.1079   19.3456 H           1 MOL       0.0592
     76 H36        25.4935   39.9573   18.1870 H           1 MOL       0.1260
@<TRIPOS>BOND
     1     1     2   2
     2     2     3  am
     3     2     6   1
     4     3     4   1
     5     4     5   1
     6     4     7   1
     7     5     6   1
     8     7     8   1
     9     8     9   1
    10     9    10   2
    11     9    11  am
    12    11    12   1
    13    12    13   1
    14    12    20   1
    15    13    14   1
    16    14    15  ar
    17    14    19  ar
    18    15    16  ar
    19    16    17  ar
    20    17    18  ar
    21    18    19  ar
    22    20    21   1
    23    20    22   1
    24    22    23   1
    25    23    24   1
    26    23    29  am
    27    24    25   1
    28    25    26   1
    29    25    27   1
    30    27    28   1
    31    29    30   2
    32    29    31   2
    33    29    32   1
    34    32    33  ar
    35    32    35  ar
    36    33    34  ar
    37    34    40  ar
    38    35    36  ar
    39    36    37   1
    40    36    40  ar
    41    37    38   1
    42    38    39   2
    43    39    40   1
    44     3    41   1
    45     4    42   1
    46     5    43   1
    47     5    44   1
    48     6    45   1
    49     6    46   1
    50     7    47   1
    51     7    48   1
    52    11    49   1
    53    12    50   1
    54    13    51   1
    55    13    52   1
    56    15    53   1
    57    16    54   1
    58    17    55   1
    59    18    56   1
    60    19    57   1
    61    20    58   1
    62    21    59   1
    63    22    60   1
    64    22    61   1
    65    24    62   1
    66    24    63   1
    67    25    64   1
    68    26    65   1
    69    26    66   1
    70    26    67   1
    71    27    68   1
    72    27    69   1
    73    28    70   1
    74    28    71   1
    75    28    72   1
    76    33    73   1
    77    34    74   1
    78    35    75   1
    79    38    76   1
@<TRIPOS>SUBSTRUCTURE
     1  MOL      2

