@<TRIPOS>MOLECULE
4djr_ligand_000
    76    79
SMALL
GAST_HUCK
****
This file was generated by PARSER (from files_GN.cpp)

@<TRIPOS>ATOM
      1 O28        13.7698   41.8415   17.8592 O.2         1 MOL      -0.3971
      2 C27        14.7113   42.0604   17.1048 C.2         1 MOL       0.1764
      3 N29        15.4826   41.1126   16.6519 N.am        1 MOL      -0.2812
      4 C24        16.4634   41.5493   15.7283 C.3         1 MOL       0.0716
      5 C25        16.3032   43.0923   15.7533 C.3         1 MOL      -0.0105
      6 C26        15.0098   43.3477   16.5581 C.3         1 MOL       0.0394
      7 C22        17.8770   41.0424   16.1064 C.3         1 MOL       0.1003
      8 O23        17.8985   39.6117   16.1548 O.3         1 MOL      -0.2616
      9 C21        17.6728   38.8195   17.2361 C.2         1 MOL       0.3200
     10 O22        17.3628   39.3635   18.4360 O.2         1 MOL      -0.3775
     11 N20        17.7567   37.4852   17.0483 N.am        1 MOL      -0.2550
     12 C19        17.5251   36.4698   18.0404 C.3         1 MOL       0.0807
     13 C32        16.2641   35.6416   17.6267 C.3         1 MOL       0.0064
     14 C38        16.4262   34.8287   16.3898 C.ar        1 MOL      -0.0408
     15 C37        16.6893   33.4375   16.4638 C.ar        1 MOL      -0.0603
     16 C36        16.9174   32.6843   15.3024 C.ar        1 MOL      -0.0686
     17 C35        16.8776   33.3061   14.0397 C.ar        1 MOL      -0.0687
     18 C34        16.5829   34.6790   13.9472 C.ar        1 MOL      -0.0686
     19 C33        16.3549   35.4326   15.1085 C.ar        1 MOL      -0.0603
     20 C17        18.8260   35.6241   18.2337 C.3         1 MOL       0.0967
     21 O18        18.5819   34.5855   19.1839 O.3         1 MOL      -0.3877
     22 C16        20.0480   36.4774   18.6910 C.3         1 MOL       0.0579
     23 N11        21.3468   35.9091   18.3914 N.am        1 MOL      -0.2317
     24 C12        22.0226   34.9453   19.2465 C.3         1 MOL       0.0322
     25 C13        21.9793   35.1903   20.8082 C.3         1 MOL      -0.0270
     26 C14        21.0326   34.1530   21.4905 C.3         1 MOL      -0.0610
     27 C15        23.3216   35.3182   21.6291 C.3         1 MOL      -0.0518
     28 C18        24.6772   35.2016   20.9017 C.3         1 MOL      -0.0650
     29 S8         22.0328   36.2525   16.8649 S.o2        1 MOL       0.0679
     30 O10        23.4230   36.9827   17.1144 O.2         1 MOL      -0.1506
     31 O9         21.2064   37.3721   16.0993 O.2         1 MOL      -0.1506
     32 C5         22.2179   34.9298   15.7367 C.ar        1 MOL       0.1007
     33 C6         23.5054   34.5292   15.2999 C.ar        1 MOL      -0.0433
     34 C7         23.6638   33.4495   14.4027 C.ar        1 MOL      -0.0517
     35 C4         21.0785   34.2561   15.2363 C.ar        1 MOL      -0.0206
     36 C3         21.2554   33.1731   14.3632 C.ar        1 MOL       0.0595
     37 S1         20.1179   32.1245   13.6222 S.3         1 MOL       0.0026
     38 C1         21.3154   31.1903   12.8151 C.2         1 MOL       0.0809
     39 N1         22.5382   31.6856   13.1098 N.2         1 MOL      -0.2931
     40 C2         22.5293   32.7565   13.9447 C.ar        1 MOL       0.0375
     41 H1         15.3552   40.1761   16.8761 H           1 MOL       0.1855
     42 H2         16.1976   41.1601   14.7420 H           1 MOL       0.0584
     43 H3         16.2234   43.4967   14.7407 H           1 MOL       0.0313
     44 H4         17.1478   43.5753   16.2543 H           1 MOL       0.0313
     45 H5         15.1700   44.0827   17.3509 H           1 MOL       0.0503
     46 H6         14.1951   43.6764   15.9075 H           1 MOL       0.0503
     47 H7         18.1991   41.4660   17.0613 H           1 MOL       0.0634
     48 H8         18.5889   41.3590   15.3412 H           1 MOL       0.0634
     49 H9         18.0114   37.1866   16.1583 H           1 MOL       0.1873
     50 H10        17.2862   36.9232   19.0093 H           1 MOL       0.0604
     51 H11        15.4125   36.3198   17.4978 H           1 MOL       0.0449
     52 H12        15.9977   34.9909   18.4662 H           1 MOL       0.0449
     53 H13        16.7327   32.9684   17.3730 H           1 MOL       0.0557
     54 H14        17.1177   31.6835   15.3701 H           1 MOL       0.0599
     55 H15        17.0550   32.7599   13.1953 H           1 MOL       0.0559
     56 H16        16.5358   35.1296   13.0309 H           1 MOL       0.0599
     57 H17        16.1381   36.4289   15.0177 H           1 MOL       0.0557
     58 H18        19.0552   35.1512   17.2847 H           1 MOL       0.0634
     59 H19        19.2296   33.8740   18.9985 H           1 MOL       0.2100
     60 H20        19.9102   36.6728   19.7505 H           1 MOL       0.0504
     61 H21        20.0053   37.4698   18.2392 H           1 MOL       0.0504
     62 H22        23.0573   34.8982   18.9314 H           1 MOL       0.0481
     63 H23        21.6245   33.9591   19.0035 H           1 MOL       0.0481
     64 H24        21.5054   36.1609   20.9520 H           1 MOL       0.0314
     65 H25        20.8690   34.4084   22.5368 H           1 MOL       0.0233
     66 H26        21.4707   33.1544   21.4480 H           1 MOL       0.0233
     67 H27        20.0605   34.1189   21.0021 H           1 MOL       0.0233
     68 H28        23.3458   34.5861   22.4381 H           1 MOL       0.0266
     69 H29        23.3309   36.2980   22.1186 H           1 MOL       0.0266
     70 H30        25.4932   35.3829   21.6009 H           1 MOL       0.0230
     71 H31        24.7424   35.9471   20.1092 H           1 MOL       0.0230
     72 H32        24.7996   34.2010   20.4838 H           1 MOL       0.0230
     73 H33        24.3422   35.0168   15.6275 H           1 MOL       0.0580
     74 H34        24.5976   33.1674   14.0931 H           1 MOL       0.0584
     75 H35        20.1338   34.5374   15.4897 H           1 MOL       0.0592
     76 H36        21.1322   30.3949   12.2046 H           1 MOL       0.1260
@<TRIPOS>BOND
     1     1     2   2
     2     2     3  am
     3     2     6   1
     4     3     4   1
     5     4     5   1
     6     4     7   1
     7     5     6   1
     8     7     8   1
     9     8     9   1
    10     9    10   2
    11     9    11  am
    12    11    12   1
    13    12    13   1
    14    12    20   1
    15    13    14   1
    16    14    15  ar
    17    14    19  ar
    18    15    16  ar
    19    16    17  ar
    20    17    18  ar
    21    18    19  ar
    22    20    21   1
    23    20    22   1
    24    22    23   1
    25    23    24   1
    26    23    29  am
    27    24    25   1
    28    25    26   1
    29    25    27   1
    30    27    28   1
    31    29    30   2
    32    29    31   2
    33    29    32   1
    34    32    33  ar
    35    32    35  ar
    36    33    34  ar
    37    34    40  ar
    38    35    36  ar
    39    36    37   1
    40    36    40  ar
    41    37    38   1
    42    38    39   2
    43    39    40   1
    44     3    41   1
    45     4    42   1
    46     5    43   1
    47     5    44   1
    48     6    45   1
    49     6    46   1
    50     7    47   1
    51     7    48   1
    52    11    49   1
    53    12    50   1
    54    13    51   1
    55    13    52   1
    56    15    53   1
    57    16    54   1
    58    17    55   1
    59    18    56   1
    60    19    57   1
    61    20    58   1
    62    21    59   1
    63    22    60   1
    64    22    61   1
    65    24    62   1
    66    24    63   1
    67    25    64   1
    68    26    65   1
    69    26    66   1
    70    26    67   1
    71    27    68   1
    72    27    69   1
    73    28    70   1
    74    28    71   1
    75    28    72   1
    76    33    73   1
    77    34    74   1
    78    35    75   1
    79    38    76   1
@<TRIPOS>SUBSTRUCTURE
     1  MOL      2

