@<TRIPOS>MOLECULE
4djr_ligand_060
    76    79
SMALL
GAST_HUCK
****
This file was generated by PARSER (from files_GN.cpp)

@<TRIPOS>ATOM
      1 O28        15.6486   35.3560   19.4211 O.2         1 MOL      -0.3971
      2 C27        15.9426   35.6921   18.2861 C.2         1 MOL       0.1764
      3 N29        15.6724   34.9554   17.2421 N.am        1 MOL      -0.2812
      4 C24        16.0436   35.5371   16.0091 C.3         1 MOL       0.0716
      5 C25        16.6719   36.8963   16.4234 C.3         1 MOL      -0.0105
      6 C26        16.6009   36.9223   17.9648 C.3         1 MOL       0.0394
      7 C22        16.9764   34.6202   15.1826 C.3         1 MOL       0.1003
      8 O23        18.2901   34.5288   15.7537 O.3         1 MOL      -0.2616
      9 C21        19.4143   34.1526   15.0908 C.2         1 MOL       0.3200
     10 O22        19.3685   33.8506   13.7710 O.2         1 MOL      -0.3775
     11 N20        20.5704   34.0894   15.7842 N.am        1 MOL      -0.2550
     12 C19        21.8641   33.7390   15.2585 C.3         1 MOL       0.0807
     13 C32        22.9398   34.6387   15.9551 C.3         1 MOL       0.0064
     14 C38        22.6556   36.1046   16.0805 C.ar        1 MOL      -0.0408
     15 C37        21.8287   36.8113   15.1686 C.ar        1 MOL      -0.0603
     16 C36        21.5601   38.1798   15.3429 C.ar        1 MOL      -0.0686
     17 C35        22.1372   38.8789   16.4182 C.ar        1 MOL      -0.0687
     18 C34        22.9877   38.2088   17.3121 C.ar        1 MOL      -0.0686
     19 C33        23.2403   36.8349   17.1441 C.ar        1 MOL      -0.0603
     20 C17        22.0677   32.1757   15.4384 C.3         1 MOL       0.0967
     21 O18        23.2331   31.8543   16.2105 O.3         1 MOL      -0.3877
     22 C16        22.1111   31.3269   14.1100 C.3         1 MOL       0.0579
     23 N11        21.1773   30.2266   13.9315 N.am        1 MOL      -0.2317
     24 C12        20.6690   29.4316   15.0334 C.3         1 MOL       0.0322
     25 C13        19.2439   29.7930   15.6081 C.3         1 MOL      -0.0270
     26 C14        19.2989   30.0434   17.1454 C.3         1 MOL      -0.0610
     27 C15        18.4478   30.9622   14.9129 C.3         1 MOL      -0.0518
     28 C18        17.0224   30.5556   14.4707 C.3         1 MOL      -0.0650
     29 S8         20.9011   29.6746   12.3451 S.o2        1 MOL       0.0679
     30 O10        21.9639   30.3328   11.3601 O.2         1 MOL      -0.1506
     31 O9         19.5087   30.1994   11.7849 O.2         1 MOL      -0.1506
     32 C5         21.1470   27.9690   12.0686 C.ar        1 MOL       0.1007
     33 C6         22.4162   27.3830   12.3052 C.ar        1 MOL      -0.0433
     34 C7         22.6361   26.0111   12.0616 C.ar        1 MOL      -0.0517
     35 C4         20.0874   27.1682   11.5864 C.ar        1 MOL      -0.0206
     36 C3         20.3282   25.8068   11.3477 C.ar        1 MOL       0.0595
     37 S1         19.3013   24.5673   10.7553 S.3         1 MOL       0.0026
     38 C1         20.5123   23.3476   10.8358 C.2         1 MOL       0.0809
     39 N1         21.6555   23.8926   11.3051 N.2         1 MOL      -0.2931
     40 C2         21.5810   25.2185   11.5815 C.ar        1 MOL       0.0375
     41 H1         15.2105   34.1034   17.3037 H           1 MOL       0.1855
     42 H2         15.1307   35.7116   15.4317 H           1 MOL       0.0584
     43 H3         16.0971   37.7261   16.0042 H           1 MOL       0.0313
     44 H4         17.7081   36.9974   16.0893 H           1 MOL       0.0313
     45 H5         17.5977   36.9459   18.4127 H           1 MOL       0.0503
     46 H6         16.0152   37.7738   18.3207 H           1 MOL       0.0503
     47 H7         17.0409   35.0319   14.1724 H           1 MOL       0.0634
     48 H8         16.5442   33.6190   15.1138 H           1 MOL       0.0634
     49 H9         20.5150   34.2431   16.7412 H           1 MOL       0.1873
     50 H10        21.9181   33.9944   14.1972 H           1 MOL       0.0604
     51 H11        23.8855   34.5354   15.4170 H           1 MOL       0.0449
     52 H12        23.0928   34.2328   16.9598 H           1 MOL       0.0449
     53 H13        21.4127   36.3370   14.3667 H           1 MOL       0.0557
     54 H14        20.9487   38.6692   14.6865 H           1 MOL       0.0599
     55 H15        21.9457   39.8751   16.5428 H           1 MOL       0.0559
     56 H16        23.4200   38.7151   18.0881 H           1 MOL       0.0599
     57 H17        23.8516   36.3658   17.8161 H           1 MOL       0.0557
     58 H18        21.2388   31.8182   16.0526 H           1 MOL       0.0634
     59 H19        23.1542   30.8989   16.4260 H           1 MOL       0.2100
     60 H20        23.1131   30.9011   13.9944 H           1 MOL       0.0504
     61 H21        21.9805   32.0093   13.2683 H           1 MOL       0.0504
     62 H22        21.4057   29.4519   15.8380 H           1 MOL       0.0481
     63 H23        20.6621   28.3775   14.7429 H           1 MOL       0.0481
     64 H24        18.6493   28.8785   15.4912 H           1 MOL       0.0314
     65 H25        18.2882   30.1389   17.5556 H           1 MOL       0.0233
     66 H26        19.8545   30.9602   17.3549 H           1 MOL       0.0233
     67 H27        19.7943   29.2132   17.6523 H           1 MOL       0.0233
     68 H28        18.9707   31.3244   14.0290 H           1 MOL       0.0266
     69 H29        18.3517   31.8233   15.5859 H           1 MOL       0.0266
     70 H30        16.5618   31.3655   13.9010 H           1 MOL       0.0230
     71 H31        16.4058   30.3420   15.3479 H           1 MOL       0.0230
     72 H32        17.0696   29.6666   13.8364 H           1 MOL       0.0230
     73 H33        23.1908   27.9532   12.6504 H           1 MOL       0.0580
     74 H34        23.5554   25.5986   12.2298 H           1 MOL       0.0584
     75 H35        19.1624   27.5581   11.4043 H           1 MOL       0.0592
     76 H36        20.3872   22.3706   10.5715 H           1 MOL       0.1260
@<TRIPOS>BOND
     1     1     2   2
     2     2     3  am
     3     2     6   1
     4     3     4   1
     5     4     5   1
     6     4     7   1
     7     5     6   1
     8     7     8   1
     9     8     9   1
    10     9    10   2
    11     9    11  am
    12    11    12   1
    13    12    13   1
    14    12    20   1
    15    13    14   1
    16    14    15  ar
    17    14    19  ar
    18    15    16  ar
    19    16    17  ar
    20    17    18  ar
    21    18    19  ar
    22    20    21   1
    23    20    22   1
    24    22    23   1
    25    23    24   1
    26    23    29  am
    27    24    25   1
    28    25    26   1
    29    25    27   1
    30    27    28   1
    31    29    30   2
    32    29    31   2
    33    29    32   1
    34    32    33  ar
    35    32    35  ar
    36    33    34  ar
    37    34    40  ar
    38    35    36  ar
    39    36    37   1
    40    36    40  ar
    41    37    38   1
    42    38    39   2
    43    39    40   1
    44     3    41   1
    45     4    42   1
    46     5    43   1
    47     5    44   1
    48     6    45   1
    49     6    46   1
    50     7    47   1
    51     7    48   1
    52    11    49   1
    53    12    50   1
    54    13    51   1
    55    13    52   1
    56    15    53   1
    57    16    54   1
    58    17    55   1
    59    18    56   1
    60    19    57   1
    61    20    58   1
    62    21    59   1
    63    22    60   1
    64    22    61   1
    65    24    62   1
    66    24    63   1
    67    25    64   1
    68    26    65   1
    69    26    66   1
    70    26    67   1
    71    27    68   1
    72    27    69   1
    73    28    70   1
    74    28    71   1
    75    28    72   1
    76    33    73   1
    77    34    74   1
    78    35    75   1
    79    38    76   1
@<TRIPOS>SUBSTRUCTURE
     1  MOL      2

