@<TRIPOS>MOLECULE
4djr_ligand_055
    76    79
SMALL
GAST_HUCK
****
This file was generated by PARSER (from files_GN.cpp)

@<TRIPOS>ATOM
      1 O28        24.1438   30.5066   13.7021 O.2         1 MOL      -0.3971
      2 C27        23.5131   31.5260   13.9688 C.2         1 MOL       0.1764
      3 N29        23.9967   32.7293   13.8151 N.am        1 MOL      -0.2812
      4 C24        23.1853   33.7596   14.3777 C.3         1 MOL       0.0716
      5 C25        21.8741   32.9888   14.6818 C.3         1 MOL      -0.0105
      6 C26        22.2548   31.4958   14.6514 C.3         1 MOL       0.0394
      7 C22        23.9116   34.4155   15.5887 C.3         1 MOL       0.1003
      8 O23        23.0540   34.6015   16.7268 O.3         1 MOL      -0.2616
      9 C21        22.7358   35.7529   17.3701 C.2         1 MOL       0.3200
     10 O22        23.1796   36.9488   16.9090 O.2         1 MOL      -0.3775
     11 N20        21.9100   35.6344   18.4378 N.am        1 MOL      -0.2550
     12 C19        21.3092   36.6285   19.2970 C.3         1 MOL       0.0807
     13 C32        22.0482   38.0042   19.4584 C.3         1 MOL       0.0064
     14 C38        23.2292   38.0502   20.3901 C.ar        1 MOL      -0.0408
     15 C37        23.6389   36.9745   21.2292 C.ar        1 MOL      -0.0603
     16 C36        24.6880   37.1289   22.1653 C.ar        1 MOL      -0.0686
     17 C35        25.3817   38.3536   22.2433 C.ar        1 MOL      -0.0687
     18 C34        25.0219   39.4197   21.3961 C.ar        1 MOL      -0.0686
     19 C33        23.9664   39.2621   20.4675 C.ar        1 MOL      -0.0603
     20 C17        19.7651   36.7328   19.0010 C.3         1 MOL       0.0967
     21 O18        19.1105   35.6395   19.6647 O.3         1 MOL      -0.3877
     22 C16        19.3826   36.8773   17.4856 C.3         1 MOL       0.0579
     23 N11        18.1414   36.2321   17.0865 N.am        1 MOL      -0.2317
     24 C12        16.9921   36.9882   16.6053 C.3         1 MOL       0.0322
     25 C13        15.7227   37.0788   17.5279 C.3         1 MOL      -0.0270
     26 C14        14.6668   35.9722   17.2315 C.3         1 MOL      -0.0610
     27 C15        16.0415   37.1832   19.0600 C.3         1 MOL      -0.0518
     28 C18        16.0722   38.6388   19.5820 C.3         1 MOL      -0.0650
     29 S8         18.0606   34.5314   17.0741 S.o2        1 MOL       0.0679
     30 O10        17.3841   33.9935   18.4088 O.2         1 MOL      -0.1506
     31 O9         19.5434   33.9851   17.2736 O.2         1 MOL      -0.1506
     32 C5         17.5605   33.5964   15.6908 C.ar        1 MOL       0.1007
     33 C6         16.3221   32.9151   15.6911 C.ar        1 MOL      -0.0433
     34 C7         16.0340   31.9543   14.7019 C.ar        1 MOL      -0.0517
     35 C4         18.4913   33.3527   14.6591 C.ar        1 MOL      -0.0206
     36 C3         18.2108   32.3566   13.7187 C.ar        1 MOL       0.0595
     37 S1         19.1766   31.7036   12.4618 S.3         1 MOL       0.0026
     38 C1         17.9828   30.5610   11.9843 C.2         1 MOL       0.0809
     39 N1         16.8911   30.6860   12.7717 N.2         1 MOL      -0.2931
     40 C2         16.9980   31.6522   13.7190 C.ar        1 MOL       0.0375
     41 H1         24.8910   32.8877   13.4706 H           1 MOL       0.1855
     42 H2         22.9890   34.5239   13.6161 H           1 MOL       0.0584
     43 H3         21.1556   33.1892   13.8806 H           1 MOL       0.0313
     44 H4         21.4185   33.2672   15.6385 H           1 MOL       0.0313
     45 H5         22.3811   31.0972   15.6665 H           1 MOL       0.0503
     46 H6         21.5183   30.9020   14.1003 H           1 MOL       0.0503
     47 H7         24.3526   35.3625   15.2500 H           1 MOL       0.0634
     48 H8         24.7342   33.7756   15.9165 H           1 MOL       0.0634
     49 H9         21.6398   34.7202   18.6409 H           1 MOL       0.1873
     50 H10        21.3729   36.1939   20.3066 H           1 MOL       0.0604
     51 H11        21.3141   38.7085   19.8724 H           1 MOL       0.0449
     52 H12        22.3534   38.3822   18.4722 H           1 MOL       0.0449
     53 H13        23.1670   36.0661   21.2049 H           1 MOL       0.0557
     54 H14        24.9553   36.3505   22.7734 H           1 MOL       0.0599
     55 H15        26.1398   38.4716   22.9250 H           1 MOL       0.0559
     56 H16        25.5290   40.3062   21.4449 H           1 MOL       0.0599
     57 H17        23.7089   40.0618   19.8763 H           1 MOL       0.0557
     58 H18        19.3903   37.6252   19.4997 H           1 MOL       0.0634
     59 H19        19.6675   34.8554   19.4761 H           1 MOL       0.2100
     60 H20        20.1750   36.4933   16.8419 H           1 MOL       0.0504
     61 H21        19.3459   37.9501   17.2628 H           1 MOL       0.0504
     62 H22        16.6959   36.5874   15.6298 H           1 MOL       0.0481
     63 H23        17.2910   38.0202   16.3949 H           1 MOL       0.0481
     64 H24        15.2079   38.0081   17.2471 H           1 MOL       0.0314
     65 H25        13.7244   36.2175   17.7283 H           1 MOL       0.0233
     66 H26        14.9937   34.9988   17.5835 H           1 MOL       0.0233
     67 H27        14.4677   35.9125   16.1602 H           1 MOL       0.0233
     68 H28        16.9996   36.7040   19.2784 H           1 MOL       0.0266
     69 H29        15.2790   36.6454   19.6442 H           1 MOL       0.0266
     70 H30        16.3847   38.6560   20.6272 H           1 MOL       0.0230
     71 H31        15.0788   39.0820   19.5148 H           1 MOL       0.0230
     72 H32        16.7680   39.2446   19.0004 H           1 MOL       0.0230
     73 H33        15.6389   33.0766   16.4331 H           1 MOL       0.0580
     74 H34        15.1375   31.4600   14.7166 H           1 MOL       0.0584
     75 H35        19.3885   33.8407   14.6348 H           1 MOL       0.0592
     76 H36        18.0836   29.8910   11.2207 H           1 MOL       0.1260
@<TRIPOS>BOND
     1     1     2   2
     2     2     3  am
     3     2     6   1
     4     3     4   1
     5     4     5   1
     6     4     7   1
     7     5     6   1
     8     7     8   1
     9     8     9   1
    10     9    10   2
    11     9    11  am
    12    11    12   1
    13    12    13   1
    14    12    20   1
    15    13    14   1
    16    14    15  ar
    17    14    19  ar
    18    15    16  ar
    19    16    17  ar
    20    17    18  ar
    21    18    19  ar
    22    20    21   1
    23    20    22   1
    24    22    23   1
    25    23    24   1
    26    23    29  am
    27    24    25   1
    28    25    26   1
    29    25    27   1
    30    27    28   1
    31    29    30   2
    32    29    31   2
    33    29    32   1
    34    32    33  ar
    35    32    35  ar
    36    33    34  ar
    37    34    40  ar
    38    35    36  ar
    39    36    37   1
    40    36    40  ar
    41    37    38   1
    42    38    39   2
    43    39    40   1
    44     3    41   1
    45     4    42   1
    46     5    43   1
    47     5    44   1
    48     6    45   1
    49     6    46   1
    50     7    47   1
    51     7    48   1
    52    11    49   1
    53    12    50   1
    54    13    51   1
    55    13    52   1
    56    15    53   1
    57    16    54   1
    58    17    55   1
    59    18    56   1
    60    19    57   1
    61    20    58   1
    62    21    59   1
    63    22    60   1
    64    22    61   1
    65    24    62   1
    66    24    63   1
    67    25    64   1
    68    26    65   1
    69    26    66   1
    70    26    67   1
    71    27    68   1
    72    27    69   1
    73    28    70   1
    74    28    71   1
    75    28    72   1
    76    33    73   1
    77    34    74   1
    78    35    75   1
    79    38    76   1
@<TRIPOS>SUBSTRUCTURE
     1  MOL      2

