@<TRIPOS>MOLECULE
4djr_ligand_034
    76    79
SMALL
GAST_HUCK
****
This file was generated by PARSER (from files_GN.cpp)

@<TRIPOS>ATOM
      1 O28        17.6186   40.2598   15.8445 O.2         1 MOL      -0.3971
      2 C27        18.7825   40.6106   15.7270 C.2         1 MOL       0.1764
      3 N29        19.7516   39.7644   15.4906 N.am        1 MOL      -0.2812
      4 C24        21.0396   40.3558   15.4550 C.3         1 MOL       0.0716
      5 C25        20.7118   41.8732   15.4968 C.3         1 MOL      -0.0105
      6 C26        19.2352   41.9508   15.9397 C.3         1 MOL       0.0394
      7 C22        21.9286   39.8895   16.6399 C.3         1 MOL       0.1003
      8 O23        21.8958   38.4647   16.8469 O.3         1 MOL      -0.2616
      9 C21        21.2246   37.8147   17.8360 C.2         1 MOL       0.3200
     10 O22        20.4291   38.5101   18.6827 O.2         1 MOL      -0.3775
     11 N20        21.3847   36.4753   17.9406 N.am        1 MOL      -0.2550
     12 C19        20.8195   35.5664   18.9084 C.3         1 MOL       0.0807
     13 C32        21.0184   35.9937   20.4005 C.3         1 MOL       0.0064
     14 C38        22.4583   36.1317   20.7806 C.ar        1 MOL      -0.0408
     15 C37        23.1761   35.0096   21.2581 C.ar        1 MOL      -0.0603
     16 C36        24.5451   35.1112   21.5765 C.ar        1 MOL      -0.0686
     17 C35        25.2140   36.3374   21.4333 C.ar        1 MOL      -0.0687
     18 C34        24.5134   37.4615   20.9624 C.ar        1 MOL      -0.0686
     19 C33        23.1471   37.3583   20.6353 C.ar        1 MOL      -0.0603
     20 C17        19.3600   35.0913   18.5563 C.3         1 MOL       0.0967
     21 O18        19.4781   34.0537   17.5853 O.3         1 MOL      -0.3877
     22 C16        18.3721   36.1755   18.0255 C.3         1 MOL       0.0579
     23 N11        16.9921   35.8403   17.7240 N.am        1 MOL      -0.2317
     24 C12        16.4270   34.5069   17.7152 C.3         1 MOL       0.0322
     25 C13        16.0953   33.9098   16.3041 C.3         1 MOL      -0.0270
     26 C14        17.3595   33.7484   15.4186 C.3         1 MOL      -0.0610
     27 C15        15.3001   32.5709   16.4474 C.3         1 MOL      -0.0518
     28 C18        14.7023   32.0232   15.1281 C.3         1 MOL      -0.0650
     29 S8         16.0036   37.1456   17.2657 S.o2        1 MOL       0.0679
     30 O10        14.5758   36.6106   16.8117 O.2         1 MOL      -0.1506
     31 O9         16.5451   37.8366   15.9391 O.2         1 MOL      -0.1506
     32 C5         15.5193   38.3372   18.4387 C.ar        1 MOL       0.1007
     33 C6         14.9344   39.5454   17.9889 C.ar        1 MOL      -0.0433
     34 C7         14.3806   40.4626   18.9041 C.ar        1 MOL      -0.0517
     35 C4         15.5736   38.0538   19.8207 C.ar        1 MOL      -0.0206
     36 C3         15.0162   38.9806   20.7175 C.ar        1 MOL       0.0595
     37 S1         14.8515   38.9492   22.4236 S.3         1 MOL       0.0026
     38 C1         14.0071   40.4477   22.5019 C.2         1 MOL       0.0809
     39 N1         13.8571   40.9390   21.2506 N.2         1 MOL      -0.2931
     40 C2         14.4076   40.1702   20.2780 C.ar        1 MOL       0.0375
     41 H1         19.5978   38.8109   15.3569 H           1 MOL       0.1855
     42 H2         21.5164   40.0990   14.5059 H           1 MOL       0.0584
     43 H3         20.8215   42.3013   14.4961 H           1 MOL       0.0313
     44 H4         21.3592   42.4343   16.1782 H           1 MOL       0.0313
     45 H5         19.1440   42.2119   16.9973 H           1 MOL       0.0503
     46 H6         18.6717   42.6650   15.3347 H           1 MOL       0.0503
     47 H7         21.6302   40.4165   17.5520 H           1 MOL       0.0634
     48 H8         22.9643   40.1639   16.4361 H           1 MOL       0.0634
     49 H9         22.0039   36.0848   17.3041 H           1 MOL       0.1873
     50 H10        21.4338   34.6671   18.8086 H           1 MOL       0.0604
     51 H11        20.5512   35.2387   21.0459 H           1 MOL       0.0449
     52 H12        20.4804   36.9210   20.6083 H           1 MOL       0.0449
     53 H13        22.7047   34.1129   21.3719 H           1 MOL       0.0557
     54 H14        25.0532   34.2893   21.9090 H           1 MOL       0.0599
     55 H15        26.2075   36.4066   21.6657 H           1 MOL       0.0559
     56 H16        25.0038   38.3510   20.8531 H           1 MOL       0.0599
     57 H17        22.6669   38.1875   20.2900 H           1 MOL       0.0557
     58 H18        18.9118   34.6430   19.4475 H           1 MOL       0.0634
     59 H19        19.7696   33.2642   18.0884 H           1 MOL       0.2100
     60 H20        18.8099   36.5812   17.1097 H           1 MOL       0.0504
     61 H21        18.3568   36.9731   18.7750 H           1 MOL       0.0504
     62 H22        15.5110   34.5503   18.3078 H           1 MOL       0.0481
     63 H23        17.0603   33.7951   18.2404 H           1 MOL       0.0481
     64 H24        15.4425   34.6041   15.7775 H           1 MOL       0.0314
     65 H25        17.0821   33.4848   14.3973 H           1 MOL       0.0233
     66 H26        18.0061   32.9637   15.8150 H           1 MOL       0.0233
     67 H27        17.9176   34.6852   15.3715 H           1 MOL       0.0233
     68 H28        14.4594   32.7257   17.1304 H           1 MOL       0.0266
     69 H29        15.9408   31.8019   16.8849 H           1 MOL       0.0266
     70 H30        14.0235   31.1953   15.3489 H           1 MOL       0.0230
     71 H31        15.4900   31.6561   14.4666 H           1 MOL       0.0230
     72 H32        14.1373   32.8025   14.6115 H           1 MOL       0.0230
     73 H33        14.8748   39.7564   16.9898 H           1 MOL       0.0580
     74 H34        13.9391   41.3228   18.5661 H           1 MOL       0.0584
     75 H35        15.9636   37.1785   20.1683 H           1 MOL       0.0592
     76 H36        13.6581   40.8867   23.3544 H           1 MOL       0.1260
@<TRIPOS>BOND
     1     1     2   2
     2     2     3  am
     3     2     6   1
     4     3     4   1
     5     4     5   1
     6     4     7   1
     7     5     6   1
     8     7     8   1
     9     8     9   1
    10     9    10   2
    11     9    11  am
    12    11    12   1
    13    12    13   1
    14    12    20   1
    15    13    14   1
    16    14    15  ar
    17    14    19  ar
    18    15    16  ar
    19    16    17  ar
    20    17    18  ar
    21    18    19  ar
    22    20    21   1
    23    20    22   1
    24    22    23   1
    25    23    24   1
    26    23    29  am
    27    24    25   1
    28    25    26   1
    29    25    27   1
    30    27    28   1
    31    29    30   2
    32    29    31   2
    33    29    32   1
    34    32    33  ar
    35    32    35  ar
    36    33    34  ar
    37    34    40  ar
    38    35    36  ar
    39    36    37   1
    40    36    40  ar
    41    37    38   1
    42    38    39   2
    43    39    40   1
    44     3    41   1
    45     4    42   1
    46     5    43   1
    47     5    44   1
    48     6    45   1
    49     6    46   1
    50     7    47   1
    51     7    48   1
    52    11    49   1
    53    12    50   1
    54    13    51   1
    55    13    52   1
    56    15    53   1
    57    16    54   1
    58    17    55   1
    59    18    56   1
    60    19    57   1
    61    20    58   1
    62    21    59   1
    63    22    60   1
    64    22    61   1
    65    24    62   1
    66    24    63   1
    67    25    64   1
    68    26    65   1
    69    26    66   1
    70    26    67   1
    71    27    68   1
    72    27    69   1
    73    28    70   1
    74    28    71   1
    75    28    72   1
    76    33    73   1
    77    34    74   1
    78    35    75   1
    79    38    76   1
@<TRIPOS>SUBSTRUCTURE
     1  MOL      2

