@<TRIPOS>MOLECULE
4djr_ligand_033
    76    79
SMALL
GAST_HUCK
****
This file was generated by PARSER (from files_GN.cpp)

@<TRIPOS>ATOM
      1 O28        23.9081   30.2390   13.4369 O.2         1 MOL      -0.3971
      2 C27        23.4300   31.3162   13.7487 C.2         1 MOL       0.1764
      3 N29        24.0741   32.4532   13.6816 N.am        1 MOL      -0.2812
      4 C24        23.3435   33.5705   14.1577 C.3         1 MOL       0.0716
      5 C25        21.9294   32.9708   14.3898 C.3         1 MOL      -0.0105
      6 C26        22.1080   31.4439   14.2741 C.3         1 MOL       0.0394
      7 C22        24.0497   34.2043   15.3907 C.3         1 MOL       0.1003
      8 O23        23.1593   35.0429   16.1422 O.3         1 MOL      -0.2616
      9 C21        22.6229   34.7459   17.3576 C.2         1 MOL       0.3200
     10 O22        22.9171   33.5701   17.9589 O.2         1 MOL      -0.3775
     11 N20        21.6542   35.5593   17.8364 N.am        1 MOL      -0.2550
     12 C19        20.8116   35.2430   18.9541 C.3         1 MOL       0.0807
     13 C32        20.9887   36.3298   20.0521 C.3         1 MOL       0.0064
     14 C38        22.3684   36.4135   20.6138 C.ar        1 MOL      -0.0408
     15 C37        23.1274   37.6058   20.5202 C.ar        1 MOL      -0.0603
     16 C36        24.4260   37.6728   21.0648 C.ar        1 MOL      -0.0686
     17 C35        24.9805   36.5509   21.7029 C.ar        1 MOL      -0.0687
     18 C34        24.2367   35.3651   21.8108 C.ar        1 MOL      -0.0686
     19 C33        22.9341   35.3005   21.2820 C.ar        1 MOL      -0.0603
     20 C17        19.3151   35.0889   18.5232 C.3         1 MOL       0.0967
     21 O18        18.6178   34.4781   19.6073 O.3         1 MOL      -0.3877
     22 C16        19.0777   34.2458   17.2341 C.3         1 MOL       0.0579
     23 N11        17.7212   33.7925   16.9798 N.am        1 MOL      -0.2317
     24 C12        16.5689   34.6568   17.1821 C.3         1 MOL       0.0322
     25 C13        16.5451   36.0142   16.4006 C.3         1 MOL      -0.0270
     26 C14        16.1726   35.8047   14.9093 C.3         1 MOL      -0.0610
     27 C15        15.6347   37.0798   17.0975 C.3         1 MOL      -0.0518
     28 C18        14.1820   36.6472   17.4177 C.3         1 MOL      -0.0650
     29 S8         17.4989   32.1733   16.5000 S.o2        1 MOL       0.0679
     30 O10        16.0043   31.6599   16.6876 O.2         1 MOL      -0.1506
     31 O9         18.2547   31.2479   17.5497 O.2         1 MOL      -0.1506
     32 C5         17.9691   31.6769   14.8989 C.ar        1 MOL       0.1007
     33 C6         18.4662   32.6132   13.9601 C.ar        1 MOL      -0.0433
     34 C7         18.8916   32.1956   12.6800 C.ar        1 MOL      -0.0517
     35 C4         17.8904   30.3084   14.5464 C.ar        1 MOL      -0.0206
     36 C3         18.3510   29.9088   13.2804 C.ar        1 MOL       0.0595
     37 S1         18.5026   28.3577   12.5674 S.3         1 MOL       0.0026
     38 C1         19.1984   28.9516   11.1116 C.2         1 MOL       0.0809
     39 N1         19.3033   30.2966   11.1884 N.2         1 MOL      -0.2931
     40 C2         18.8474   30.8325   12.3507 C.ar        1 MOL       0.0375
     41 H1         24.9963   32.5214   13.3815 H           1 MOL       0.1855
     42 H2         23.2857   34.3181   13.3591 H           1 MOL       0.0584
     43 H3         21.2632   33.3421   13.6015 H           1 MOL       0.0313
     44 H4         21.4864   33.2316   15.3588 H           1 MOL       0.0313
     45 H5         22.0518   30.9629   15.2540 H           1 MOL       0.0503
     46 H6         21.3787   30.9972   13.5961 H           1 MOL       0.0503
     47 H7         24.8744   34.8236   15.0443 H           1 MOL       0.0634
     48 H8         24.4737   33.4155   16.0187 H           1 MOL       0.0634
     49 H9         21.4524   36.3678   17.3377 H           1 MOL       0.1873
     50 H10        21.0944   34.2780   19.3909 H           1 MOL       0.0604
     51 H11        20.3065   36.1206   20.8802 H           1 MOL       0.0449
     52 H12        20.6829   37.2940   19.6294 H           1 MOL       0.0449
     53 H13        22.7385   38.4360   20.0721 H           1 MOL       0.0557
     54 H14        24.9627   38.5396   20.9976 H           1 MOL       0.0599
     55 H15        25.9237   36.5995   22.1019 H           1 MOL       0.0559
     56 H16        24.6377   34.5476   22.2783 H           1 MOL       0.0599
     57 H17        22.4014   34.4363   21.3963 H           1 MOL       0.0557
     58 H18        18.8907   36.0838   18.3706 H           1 MOL       0.0634
     59 H19        19.0206   33.5892   19.7034 H           1 MOL       0.2100
     60 H20        19.7610   33.3920   17.2827 H           1 MOL       0.0504
     61 H21        19.3896   34.8356   16.3697 H           1 MOL       0.0504
     62 H22        16.5157   34.8647   18.2534 H           1 MOL       0.0481
     63 H23        15.6430   34.1299   16.9447 H           1 MOL       0.0481
     64 H24        17.5511   36.4429   16.4033 H           1 MOL       0.0314
     65 H25        16.1983   36.7551   14.3746 H           1 MOL       0.0233
     66 H26        15.1783   35.3709   14.8116 H           1 MOL       0.0233
     67 H27        16.8860   35.1385   14.4351 H           1 MOL       0.0233
     68 H28        15.6036   37.9831   16.4802 H           1 MOL       0.0266
     69 H29        16.1043   37.3648   18.0446 H           1 MOL       0.0266
     70 H30        13.6180   37.5028   17.7913 H           1 MOL       0.0230
     71 H31        14.1752   35.8751   18.1904 H           1 MOL       0.0230
     72 H32        13.6786   36.2618   16.5301 H           1 MOL       0.0230
     73 H33        18.5771   33.5910   14.2127 H           1 MOL       0.0580
     74 H34        19.2888   32.8724   12.0248 H           1 MOL       0.0584
     75 H35        17.5486   29.6063   15.2068 H           1 MOL       0.0592
     76 H36        19.4907   28.3853   10.3155 H           1 MOL       0.1260
@<TRIPOS>BOND
     1     1     2   2
     2     2     3  am
     3     2     6   1
     4     3     4   1
     5     4     5   1
     6     4     7   1
     7     5     6   1
     8     7     8   1
     9     8     9   1
    10     9    10   2
    11     9    11  am
    12    11    12   1
    13    12    13   1
    14    12    20   1
    15    13    14   1
    16    14    15  ar
    17    14    19  ar
    18    15    16  ar
    19    16    17  ar
    20    17    18  ar
    21    18    19  ar
    22    20    21   1
    23    20    22   1
    24    22    23   1
    25    23    24   1
    26    23    29  am
    27    24    25   1
    28    25    26   1
    29    25    27   1
    30    27    28   1
    31    29    30   2
    32    29    31   2
    33    29    32   1
    34    32    33  ar
    35    32    35  ar
    36    33    34  ar
    37    34    40  ar
    38    35    36  ar
    39    36    37   1
    40    36    40  ar
    41    37    38   1
    42    38    39   2
    43    39    40   1
    44     3    41   1
    45     4    42   1
    46     5    43   1
    47     5    44   1
    48     6    45   1
    49     6    46   1
    50     7    47   1
    51     7    48   1
    52    11    49   1
    53    12    50   1
    54    13    51   1
    55    13    52   1
    56    15    53   1
    57    16    54   1
    58    17    55   1
    59    18    56   1
    60    19    57   1
    61    20    58   1
    62    21    59   1
    63    22    60   1
    64    22    61   1
    65    24    62   1
    66    24    63   1
    67    25    64   1
    68    26    65   1
    69    26    66   1
    70    26    67   1
    71    27    68   1
    72    27    69   1
    73    28    70   1
    74    28    71   1
    75    28    72   1
    76    33    73   1
    77    34    74   1
    78    35    75   1
    79    38    76   1
@<TRIPOS>SUBSTRUCTURE
     1  MOL      2

