@<TRIPOS>MOLECULE
4djr_ligand_065
    76    79
SMALL
GAST_HUCK
****
This file was generated by PARSER (from files_GN.cpp)

@<TRIPOS>ATOM
      1 O28        13.9639   41.6960   18.0211 O.2         1 MOL      -0.3971
      2 C27        14.8043   41.9611   17.1719 C.2         1 MOL       0.1764
      3 N29        15.4947   41.0379   16.5570 N.am        1 MOL      -0.2812
      4 C24        16.4412   41.5411   15.6378 C.3         1 MOL       0.0716
      5 C25        16.2226   43.0754   15.6791 C.3         1 MOL      -0.0105
      6 C26        15.1353   43.2911   16.7562 C.3         1 MOL       0.0394
      7 C22        17.8661   41.0991   16.0277 C.3         1 MOL       0.1003
      8 O23        17.9316   39.6661   16.0997 O.3         1 MOL      -0.2616
      9 C21        17.9711   38.8961   17.2191 C.2         1 MOL       0.3200
     10 O22        17.9155   39.4725   18.4459 O.2         1 MOL      -0.3775
     11 N20        17.9709   37.5522   17.0642 N.am        1 MOL      -0.2550
     12 C19        17.7979   36.5875   18.1209 C.3         1 MOL       0.0807
     13 C32        16.3191   36.0723   18.1163 C.3         1 MOL       0.0064
     14 C38        15.9940   35.0132   17.1165 C.ar        1 MOL      -0.0408
     15 C37        15.7345   33.6827   17.5333 C.ar        1 MOL      -0.0603
     16 C36        15.4155   32.6811   16.5985 C.ar        1 MOL      -0.0686
     17 C35        15.3507   32.9952   15.2300 C.ar        1 MOL      -0.0687
     18 C34        15.6034   34.3103   14.7989 C.ar        1 MOL      -0.0686
     19 C33        15.9207   35.3118   15.7355 C.ar        1 MOL      -0.0603
     20 C17        18.8837   35.4630   18.0374 C.3         1 MOL       0.0967
     21 O18        18.5626   34.4505   18.9961 O.3         1 MOL      -0.3877
     22 C16        20.3361   35.9742   18.2978 C.3         1 MOL       0.0579
     23 N11        21.3539   35.2513   17.5497 N.am        1 MOL      -0.2317
     24 C12        21.8914   33.9990   18.0528 C.3         1 MOL       0.0322
     25 C13        21.8455   32.7005   17.1594 C.3         1 MOL      -0.0270
     26 C14        20.5189   32.5533   16.3631 C.3         1 MOL      -0.0610
     27 C15        23.1463   32.3824   16.3285 C.3         1 MOL      -0.0518
     28 C18        23.1407   32.5813   14.7906 C.3         1 MOL      -0.0650
     29 S8         22.0943   36.0164   16.2212 S.o2        1 MOL       0.0679
     30 O10        21.3522   35.6879   14.8534 O.2         1 MOL      -0.1506
     31 O9         23.6036   35.5333   16.0793 O.2         1 MOL      -0.1506
     32 C5         22.2459   37.7505   16.3532 C.ar        1 MOL       0.1007
     33 C6         21.2455   38.5901   15.8066 C.ar        1 MOL      -0.0433
     34 C7         21.3388   39.9904   15.9230 C.ar        1 MOL      -0.0517
     35 C4         23.3538   38.3259   17.0213 C.ar        1 MOL      -0.0206
     36 C3         23.4215   39.7222   17.1416 C.ar        1 MOL       0.0595
     37 S1         24.5852   40.7494   17.8742 S.3         1 MOL       0.0026
     38 C1         23.7422   42.1976   17.4804 C.2         1 MOL       0.0809
     39 N1         22.6144   41.8831   16.8063 N.2         1 MOL      -0.2931
     40 C2         22.4254   40.5564   16.6105 C.ar        1 MOL       0.0375
     41 H1         15.3914   40.0894   16.7355 H           1 MOL       0.1855
     42 H2         16.2039   41.1511   14.6464 H           1 MOL       0.0584
     43 H3         15.8777   43.4336   14.7050 H           1 MOL       0.0313
     44 H4         17.1357   43.6234   15.9385 H           1 MOL       0.0313
     45 H5         15.5223   43.8668   17.6001 H           1 MOL       0.0503
     46 H6         14.2590   43.7871   16.3352 H           1 MOL       0.0503
     47 H7         18.1679   41.5611   16.9737 H           1 MOL       0.0634
     48 H8         18.5415   41.4505   15.2488 H           1 MOL       0.0634
     49 H9         18.0107   37.2134   16.1541 H           1 MOL       0.1873
     50 H10        17.9433   37.0733   19.0923 H           1 MOL       0.0604
     51 H11        15.6394   36.9146   17.9566 H           1 MOL       0.0449
     52 H12        16.0960   35.7039   19.1219 H           1 MOL       0.0449
     53 H13        15.7825   33.4290   18.5228 H           1 MOL       0.0557
     54 H14        15.2347   31.7257   16.9142 H           1 MOL       0.0599
     55 H15        15.1183   32.2665   14.5536 H           1 MOL       0.0559
     56 H16        15.5525   34.5409   13.8039 H           1 MOL       0.0599
     57 H17        16.0928   36.2642   15.4012 H           1 MOL       0.0557
     58 H18        18.8331   35.0150   17.0421 H           1 MOL       0.0634
     59 H19        19.2042   33.7239   18.8748 H           1 MOL       0.2100
     60 H20        20.5519   35.9097   19.3686 H           1 MOL       0.0504
     61 H21        20.3808   37.0405   18.0785 H           1 MOL       0.0504
     62 H22        21.3633   33.7487   18.9795 H           1 MOL       0.0481
     63 H23        22.9189   34.1874   18.3704 H           1 MOL       0.0481
     64 H24        21.8000   31.8821   17.8950 H           1 MOL       0.0314
     65 H25        20.4886   31.5871   15.8546 H           1 MOL       0.0233
     66 H26        20.4224   33.3424   15.6186 H           1 MOL       0.0233
     67 H27        19.6611   32.5985   17.0369 H           1 MOL       0.0233
     68 H28        23.3941   31.3280   16.4851 H           1 MOL       0.0266
     69 H29        23.9861   32.9446   16.7367 H           1 MOL       0.0266
     70 H30        24.1393   32.3750   14.3969 H           1 MOL       0.0230
     71 H31        22.8664   33.5964   14.5153 H           1 MOL       0.0230
     72 H32        22.4427   31.8881   14.3161 H           1 MOL       0.0230
     73 H33        20.4365   38.1906   15.3285 H           1 MOL       0.0580
     74 H34        20.6326   40.5940   15.5070 H           1 MOL       0.0584
     75 H35        24.0945   37.7448   17.4198 H           1 MOL       0.0592
     76 H36        24.0441   43.1437   17.7103 H           1 MOL       0.1260
@<TRIPOS>BOND
     1     1     2   2
     2     2     3  am
     3     2     6   1
     4     3     4   1
     5     4     5   1
     6     4     7   1
     7     5     6   1
     8     7     8   1
     9     8     9   1
    10     9    10   2
    11     9    11  am
    12    11    12   1
    13    12    13   1
    14    12    20   1
    15    13    14   1
    16    14    15  ar
    17    14    19  ar
    18    15    16  ar
    19    16    17  ar
    20    17    18  ar
    21    18    19  ar
    22    20    21   1
    23    20    22   1
    24    22    23   1
    25    23    24   1
    26    23    29  am
    27    24    25   1
    28    25    26   1
    29    25    27   1
    30    27    28   1
    31    29    30   2
    32    29    31   2
    33    29    32   1
    34    32    33  ar
    35    32    35  ar
    36    33    34  ar
    37    34    40  ar
    38    35    36  ar
    39    36    37   1
    40    36    40  ar
    41    37    38   1
    42    38    39   2
    43    39    40   1
    44     3    41   1
    45     4    42   1
    46     5    43   1
    47     5    44   1
    48     6    45   1
    49     6    46   1
    50     7    47   1
    51     7    48   1
    52    11    49   1
    53    12    50   1
    54    13    51   1
    55    13    52   1
    56    15    53   1
    57    16    54   1
    58    17    55   1
    59    18    56   1
    60    19    57   1
    61    20    58   1
    62    21    59   1
    63    22    60   1
    64    22    61   1
    65    24    62   1
    66    24    63   1
    67    25    64   1
    68    26    65   1
    69    26    66   1
    70    26    67   1
    71    27    68   1
    72    27    69   1
    73    28    70   1
    74    28    71   1
    75    28    72   1
    76    33    73   1
    77    34    74   1
    78    35    75   1
    79    38    76   1
@<TRIPOS>SUBSTRUCTURE
     1  MOL      2

