@<TRIPOS>MOLECULE
4djr_ligand_094
    76    79
SMALL
GAST_HUCK
****
This file was generated by PARSER (from files_GN.cpp)

@<TRIPOS>ATOM
      1 O28        15.4338   35.4064   19.0992 O.2         1 MOL      -0.3971
      2 C27        16.0780   36.3365   18.6327 C.2         1 MOL       0.1764
      3 N29        16.9654   36.1492   17.6962 N.am        1 MOL      -0.2812
      4 C24        17.4760   37.3389   17.1250 C.3         1 MOL       0.0716
      5 C25        16.9171   38.4403   18.0655 C.3         1 MOL      -0.0105
      6 C26        15.8256   37.7230   18.8947 C.3         1 MOL       0.0394
      7 C22        19.0145   37.2932   16.9729 C.3         1 MOL       0.1003
      8 O23        19.4170   35.9613   16.6379 O.3         1 MOL      -0.2616
      9 C21        20.6244   35.5370   16.2029 C.2         1 MOL       0.3200
     10 O22        21.6143   36.4107   15.9061 O.2         1 MOL      -0.3775
     11 N20        20.8246   34.2054   16.2484 N.am        1 MOL      -0.2550
     12 C19        22.0991   33.5445   16.1358 C.3         1 MOL       0.0807
     13 C32        22.7102   33.3496   17.5624 C.3         1 MOL       0.0064
     14 C38        22.6052   34.5583   18.4374 C.ar        1 MOL      -0.0408
     15 C37        21.8619   34.5173   19.6398 C.ar        1 MOL      -0.0603
     16 C36        21.6905   35.6747   20.4195 C.ar        1 MOL      -0.0686
     17 C35        22.2641   36.8920   20.0097 C.ar        1 MOL      -0.0687
     18 C34        22.9951   36.9516   18.8123 C.ar        1 MOL      -0.0686
     19 C33        23.1592   35.7964   18.0265 C.ar        1 MOL      -0.0603
     20 C17        21.8964   32.2019   15.3600 C.3         1 MOL       0.0967
     21 O18        23.0568   31.3680   15.4596 O.3         1 MOL      -0.3877
     22 C16        21.5973   32.4305   13.8508 C.3         1 MOL       0.0579
     23 N11        20.9762   31.3012   13.1712 N.am        1 MOL      -0.2317
     24 C12        21.8107   30.3247   12.4941 C.3         1 MOL       0.0322
     25 C13        21.3477   28.8231   12.4539 C.3         1 MOL      -0.0270
     26 C14        21.8434   28.1546   11.1346 C.3         1 MOL      -0.0610
     27 C15        21.8191   27.9657   13.6785 C.3         1 MOL      -0.0518
     28 C18        20.9555   28.1012   14.9481 C.3         1 MOL      -0.0650
     29 S8         19.3880   31.5572   12.6139 S.o2        1 MOL       0.0679
     30 O10        18.8688   30.4511   11.5976 O.2         1 MOL      -0.1506
     31 O9         19.3965   32.8553   11.6910 O.2         1 MOL      -0.1506
     32 C5         18.1838   31.7092   13.8612 C.ar        1 MOL       0.1007
     33 C6         17.8222   30.5737   14.6266 C.ar        1 MOL      -0.0433
     34 C7         16.8329   30.6616   15.6244 C.ar        1 MOL      -0.0517
     35 C4         17.5395   32.9445   14.1035 C.ar        1 MOL      -0.0206
     36 C3         16.5488   33.0091   15.0955 C.ar        1 MOL       0.0595
     37 S1         15.5641   34.3064   15.6292 S.3         1 MOL       0.0026
     38 C1         14.7441   33.3684   16.8160 C.2         1 MOL       0.0809
     39 N1         15.2176   32.1034   16.7801 N.2         1 MOL      -0.2931
     40 C2         16.1893   31.8893   15.8611 C.ar        1 MOL       0.0375
     41 H1         17.1689   35.2684   17.3419 H           1 MOL       0.1855
     42 H2         17.0314   37.4407   16.1342 H           1 MOL       0.0584
     43 H3         16.4995   39.2747   17.4957 H           1 MOL       0.0313
     44 H4         17.6885   38.8298   18.7373 H           1 MOL       0.0313
     45 H5         15.9209   37.9410   19.9642 H           1 MOL       0.0503
     46 H6         14.8222   37.9938   18.5493 H           1 MOL       0.0503
     47 H7         19.5073   37.5714   17.9111 H           1 MOL       0.0634
     48 H8         19.3213   38.0012   16.1960 H           1 MOL       0.0634
     49 H9         20.0713   33.6568   16.5404 H           1 MOL       0.1873
     50 H10        22.7988   34.1568   15.5644 H           1 MOL       0.0604
     51 H11        23.7702   33.0955   17.4674 H           1 MOL       0.0449
     52 H12        22.2216   32.4917   18.0397 H           1 MOL       0.0449
     53 H13        21.4186   33.6508   19.9480 H           1 MOL       0.0557
     54 H14        21.1279   35.6367   21.2702 H           1 MOL       0.0599
     55 H15        22.1403   37.7346   20.5772 H           1 MOL       0.0559
     56 H16        23.3792   37.8466   18.4957 H           1 MOL       0.0599
     57 H17        23.6732   35.8682   17.1488 H           1 MOL       0.0557
     58 H18        21.0554   31.6694   15.8114 H           1 MOL       0.0634
     59 H19        22.9103   30.7776   16.2379 H           1 MOL       0.2100
     60 H20        22.5349   32.6999   13.3488 H           1 MOL       0.0504
     61 H21        20.9725   33.3232   13.7620 H           1 MOL       0.0504
     62 H22        22.8170   30.3335   12.9157 H           1 MOL       0.0481
     63 H23        21.9209   30.6982   11.4730 H           1 MOL       0.0481
     64 H24        20.2578   28.7777   12.4244 H           1 MOL       0.0314
     65 H25        21.4834   27.1264   11.0609 H           1 MOL       0.0233
     66 H26        22.9350   28.1419   11.0922 H           1 MOL       0.0233
     67 H27        21.4696   28.6963   10.2642 H           1 MOL       0.0233
     68 H28        22.8571   28.2062   13.9266 H           1 MOL       0.0266
     69 H29        21.7909   26.9061   13.4148 H           1 MOL       0.0266
     70 H30        21.3783   27.4925   15.7476 H           1 MOL       0.0230
     71 H31        19.9437   27.7478   14.7549 H           1 MOL       0.0230
     72 H32        20.9167   29.1347   15.2798 H           1 MOL       0.0230
     73 H33        18.2700   29.6734   14.4509 H           1 MOL       0.0580
     74 H34        16.5691   29.8328   16.1662 H           1 MOL       0.0584
     75 H35        17.7746   33.7862   13.5686 H           1 MOL       0.0592
     76 H36        14.0116   33.7098   17.4407 H           1 MOL       0.1260
@<TRIPOS>BOND
     1     1     2   2
     2     2     3  am
     3     2     6   1
     4     3     4   1
     5     4     5   1
     6     4     7   1
     7     5     6   1
     8     7     8   1
     9     8     9   1
    10     9    10   2
    11     9    11  am
    12    11    12   1
    13    12    13   1
    14    12    20   1
    15    13    14   1
    16    14    15  ar
    17    14    19  ar
    18    15    16  ar
    19    16    17  ar
    20    17    18  ar
    21    18    19  ar
    22    20    21   1
    23    20    22   1
    24    22    23   1
    25    23    24   1
    26    23    29  am
    27    24    25   1
    28    25    26   1
    29    25    27   1
    30    27    28   1
    31    29    30   2
    32    29    31   2
    33    29    32   1
    34    32    33  ar
    35    32    35  ar
    36    33    34  ar
    37    34    40  ar
    38    35    36  ar
    39    36    37   1
    40    36    40  ar
    41    37    38   1
    42    38    39   2
    43    39    40   1
    44     3    41   1
    45     4    42   1
    46     5    43   1
    47     5    44   1
    48     6    45   1
    49     6    46   1
    50     7    47   1
    51     7    48   1
    52    11    49   1
    53    12    50   1
    54    13    51   1
    55    13    52   1
    56    15    53   1
    57    16    54   1
    58    17    55   1
    59    18    56   1
    60    19    57   1
    61    20    58   1
    62    21    59   1
    63    22    60   1
    64    22    61   1
    65    24    62   1
    66    24    63   1
    67    25    64   1
    68    26    65   1
    69    26    66   1
    70    26    67   1
    71    27    68   1
    72    27    69   1
    73    28    70   1
    74    28    71   1
    75    28    72   1
    76    33    73   1
    77    34    74   1
    78    35    75   1
    79    38    76   1
@<TRIPOS>SUBSTRUCTURE
     1  MOL      2

