@<TRIPOS>MOLECULE
4djr_ligand_071
    76    79
SMALL
GAST_HUCK
****
This file was generated by PARSER (from files_GN.cpp)

@<TRIPOS>ATOM
      1 O28        20.9902   42.8476   15.0223 O.2         1 MOL      -0.3971
      2 C27        21.7102   41.8865   14.7911 C.2         1 MOL       0.1764
      3 N29        21.6970   40.8007   15.5198 N.am        1 MOL      -0.2812
      4 C24        22.6419   39.8215   15.1261 C.3         1 MOL       0.0716
      5 C25        23.2577   40.4292   13.8344 C.3         1 MOL      -0.0105
      6 C26        22.6727   41.8527   13.7340 C.3         1 MOL       0.0394
      7 C22        23.6547   39.5310   16.2725 C.3         1 MOL       0.1003
      8 O23        23.4753   38.2067   16.8018 O.3         1 MOL      -0.2616
      9 C21        22.8148   37.8436   17.9343 C.2         1 MOL       0.3200
     10 O22        22.1858   38.7671   18.7040 O.2         1 MOL      -0.3775
     11 N20        22.7946   36.5186   18.2146 N.am        1 MOL      -0.2550
     12 C19        22.1397   35.8378   19.2995 C.3         1 MOL       0.0807
     13 C32        22.5631   36.3072   20.7301 C.3         1 MOL       0.0064
     14 C38        24.0377   36.3590   20.9587 C.ar        1 MOL      -0.0408
     15 C37        24.8106   35.1747   20.9097 C.ar        1 MOL      -0.0603
     16 C36        26.1952   35.2036   21.1631 C.ar        1 MOL      -0.0686
     17 C35        26.8282   36.4209   21.4709 C.ar        1 MOL      -0.0687
     18 C34        26.0761   37.6061   21.5274 C.ar        1 MOL      -0.0686
     19 C33        24.6914   37.5780   21.2690 C.ar        1 MOL      -0.0603
     20 C17        20.5826   35.7292   19.1239 C.3         1 MOL       0.0967
     21 O18        20.2870   34.6764   18.2048 O.3         1 MOL      -0.3877
     22 C16        19.8506   37.0157   18.6243 C.3         1 MOL       0.0579
     23 N11        18.4410   37.0036   18.2419 N.am        1 MOL      -0.2317
     24 C12        17.5079   35.9742   18.6576 C.3         1 MOL       0.0322
     25 C13        16.3642   35.5595   17.6603 C.3         1 MOL      -0.0270
     26 C14        16.2634   34.0103   17.5184 C.3         1 MOL      -0.0610
     27 C15        14.9994   36.2040   18.0744 C.3         1 MOL      -0.0518
     28 C18        13.7229   35.5612   17.4893 C.3         1 MOL      -0.0650
     29 S8         17.8504   38.4726   17.6126 S.o2        1 MOL       0.0679
     30 O10        17.3193   38.3113   16.1220 O.2         1 MOL      -0.1506
     31 O9         19.0463   39.5054   17.4141 O.2         1 MOL      -0.1506
     32 C5         16.7303   39.3822   18.5829 C.ar        1 MOL       0.1007
     33 C6         15.5420   39.8865   18.0061 C.ar        1 MOL      -0.0433
     34 C7         14.5774   40.5360   18.7998 C.ar        1 MOL      -0.0517
     35 C4         16.9722   39.5633   19.9626 C.ar        1 MOL      -0.0206
     36 C3         15.9900   40.1903   20.7422 C.ar        1 MOL       0.0595
     37 S1         15.9250   40.5145   22.4268 S.3         1 MOL       0.0026
     38 C1         14.3738   41.2551   22.3476 C.2         1 MOL       0.0809
     39 N1         13.9355   41.2450   21.0689 N.2         1 MOL      -0.2931
     40 C2         14.7950   40.6752   20.1834 C.ar        1 MOL       0.0375
     41 H1         21.1070   40.6832   16.2836 H           1 MOL       0.1855
     42 H2         22.0929   38.9067   14.8783 H           1 MOL       0.0584
     43 H3         22.9586   39.8375   12.9632 H           1 MOL       0.0313
     44 H4         24.3495   40.4662   13.8572 H           1 MOL       0.0313
     45 H5         23.4443   42.6070   13.9026 H           1 MOL       0.0503
     46 H6         22.1937   42.0206   12.7665 H           1 MOL       0.0503
     47 H7         23.5864   40.2884   17.0625 H           1 MOL       0.0634
     48 H8         24.6718   39.5582   15.8889 H           1 MOL       0.0634
     49 H9         23.2950   35.9461   17.6071 H           1 MOL       0.1873
     50 H10        22.4945   34.8055   19.2279 H           1 MOL       0.0604
     51 H11        22.1410   35.6123   21.4726 H           1 MOL       0.0449
     52 H12        22.1122   37.2872   20.9191 H           1 MOL       0.0449
     53 H13        24.3645   34.2781   20.7056 H           1 MOL       0.0557
     54 H14        26.7337   34.3373   21.1377 H           1 MOL       0.0599
     55 H15        27.8275   36.4389   21.6684 H           1 MOL       0.0559
     56 H16        26.5328   38.4906   21.7666 H           1 MOL       0.0599
     57 H17        24.1620   38.4556   21.3165 H           1 MOL       0.0557
     58 H18        20.1553   35.4515   20.0914 H           1 MOL       0.0634
     59 H19        20.2735   33.8576   18.7513 H           1 MOL       0.2100
     60 H20        20.3995   37.3218   17.7194 H           1 MOL       0.0504
     61 H21        20.0120   37.8119   19.3839 H           1 MOL       0.0504
     62 H22        17.0867   36.2763   19.6150 H           1 MOL       0.0481
     63 H23        18.0689   35.0718   18.8842 H           1 MOL       0.0481
     64 H24        16.6219   35.9318   16.6653 H           1 MOL       0.0314
     65 H25        15.5518   33.7305   16.7428 H           1 MOL       0.0233
     66 H26        15.9548   33.5556   18.4601 H           1 MOL       0.0233
     67 H27        17.2297   33.5934   17.2320 H           1 MOL       0.0233
     68 H28        14.9853   37.2416   17.7450 H           1 MOL       0.0266
     69 H29        14.9007   36.2077   19.1619 H           1 MOL       0.0266
     70 H30        12.8581   36.2047   17.6912 H           1 MOL       0.0230
     71 H31        13.5325   34.5870   17.9464 H           1 MOL       0.0230
     72 H32        13.8205   35.4409   16.4072 H           1 MOL       0.0230
     73 H33        15.3595   39.7706   17.0094 H           1 MOL       0.0580
     74 H34        13.7174   40.8910   18.3748 H           1 MOL       0.0584
     75 H35        17.8273   39.2306   20.4052 H           1 MOL       0.0592
     76 H36        13.8637   41.6417   23.1429 H           1 MOL       0.1260
@<TRIPOS>BOND
     1     1     2   2
     2     2     3  am
     3     2     6   1
     4     3     4   1
     5     4     5   1
     6     4     7   1
     7     5     6   1
     8     7     8   1
     9     8     9   1
    10     9    10   2
    11     9    11  am
    12    11    12   1
    13    12    13   1
    14    12    20   1
    15    13    14   1
    16    14    15  ar
    17    14    19  ar
    18    15    16  ar
    19    16    17  ar
    20    17    18  ar
    21    18    19  ar
    22    20    21   1
    23    20    22   1
    24    22    23   1
    25    23    24   1
    26    23    29  am
    27    24    25   1
    28    25    26   1
    29    25    27   1
    30    27    28   1
    31    29    30   2
    32    29    31   2
    33    29    32   1
    34    32    33  ar
    35    32    35  ar
    36    33    34  ar
    37    34    40  ar
    38    35    36  ar
    39    36    37   1
    40    36    40  ar
    41    37    38   1
    42    38    39   2
    43    39    40   1
    44     3    41   1
    45     4    42   1
    46     5    43   1
    47     5    44   1
    48     6    45   1
    49     6    46   1
    50     7    47   1
    51     7    48   1
    52    11    49   1
    53    12    50   1
    54    13    51   1
    55    13    52   1
    56    15    53   1
    57    16    54   1
    58    17    55   1
    59    18    56   1
    60    19    57   1
    61    20    58   1
    62    21    59   1
    63    22    60   1
    64    22    61   1
    65    24    62   1
    66    24    63   1
    67    25    64   1
    68    26    65   1
    69    26    66   1
    70    26    67   1
    71    27    68   1
    72    27    69   1
    73    28    70   1
    74    28    71   1
    75    28    72   1
    76    33    73   1
    77    34    74   1
    78    35    75   1
    79    38    76   1
@<TRIPOS>SUBSTRUCTURE
     1  MOL      2

