@<TRIPOS>MOLECULE
4djr_ligand_052
    76    79
SMALL
GAST_HUCK
****
This file was generated by PARSER (from files_GN.cpp)

@<TRIPOS>ATOM
      1 O28        24.9537   38.1235   24.0217 O.2         1 MOL      -0.3971
      2 C27        25.3387   37.4746   23.0610 C.2         1 MOL       0.1764
      3 N29        24.5187   36.9028   22.2157 N.am        1 MOL      -0.2812
      4 C24        25.1454   36.2694   21.1168 C.3         1 MOL       0.0716
      5 C25        26.6504   36.3698   21.4868 C.3         1 MOL      -0.0105
      6 C26        26.7125   37.3476   22.6813 C.3         1 MOL       0.0394
      7 C22        24.6165   34.8255   20.8603 C.3         1 MOL       0.1003
      8 O23        23.5517   34.8060   19.8913 O.3         1 MOL      -0.2616
      9 C21        22.3235   35.3770   20.0057 C.2         1 MOL       0.3200
     10 O22        21.9671   35.9738   21.1684 O.2         1 MOL      -0.3775
     11 N20        21.5301   35.4257   18.9071 N.am        1 MOL      -0.2550
     12 C19        20.3931   36.2988   18.7598 C.3         1 MOL       0.0807
     13 C32        20.7343   37.4279   17.7276 C.3         1 MOL       0.0064
     14 C38        21.9927   38.1945   17.9760 C.ar        1 MOL      -0.0408
     15 C37        22.9187   38.4328   16.9290 C.ar        1 MOL      -0.0603
     16 C36        24.0758   39.2001   17.1536 C.ar        1 MOL      -0.0686
     17 C35        24.3359   39.7274   18.4311 C.ar        1 MOL      -0.0687
     18 C34        23.4315   39.4939   19.4819 C.ar        1 MOL      -0.0686
     19 C33        22.2721   38.7301   19.2555 C.ar        1 MOL      -0.0603
     20 C17        19.0489   35.5472   18.4574 C.3         1 MOL       0.0967
     21 O18        18.7706   34.6016   19.4870 O.3         1 MOL      -0.3877
     22 C16        18.9163   34.8268   17.0730 C.3         1 MOL       0.0579
     23 N11        17.6224   34.3820   16.5673 N.am        1 MOL      -0.2317
     24 C12        17.6023   33.6984   15.2806 C.3         1 MOL       0.0322
     25 C13        16.8576   32.3227   15.1874 C.3         1 MOL      -0.0270
     26 C14        17.2475   31.5471   13.8978 C.3         1 MOL      -0.0610
     27 C15        16.9736   31.4386   16.4679 C.3         1 MOL      -0.0518
     28 C18        18.3344   30.7399   16.7071 C.3         1 MOL      -0.0650
     29 S8         16.1725   35.0443   17.1603 S.o2        1 MOL       0.0679
     30 O10        15.8673   34.4321   18.5996 O.2         1 MOL      -0.1506
     31 O9         14.9047   34.5650   16.3238 O.2         1 MOL      -0.1506
     32 C5         15.9132   36.7689   17.2279 C.ar        1 MOL       0.1007
     33 C6         14.7545   37.2722   17.8732 C.ar        1 MOL      -0.0433
     34 C7         14.5560   38.6602   18.0207 C.ar        1 MOL      -0.0517
     35 C4         16.8516   37.6736   16.6835 C.ar        1 MOL      -0.0206
     36 C3         16.6518   39.0508   16.8675 C.ar        1 MOL       0.0595
     37 S1         17.6086   40.4015   16.4199 S.3         1 MOL       0.0026
     38 C1         16.5274   41.5540   17.1016 C.2         1 MOL       0.0809
     39 N1         15.4731   40.9075   17.6455 N.2         1 MOL      -0.2931
     40 C2         15.5217   39.5562   17.5291 C.ar        1 MOL       0.0375
     41 H1         23.5577   36.9833   22.2923 H           1 MOL       0.1855
     42 H2         24.9484   36.8860   20.2365 H           1 MOL       0.0584
     43 H3         27.2415   36.7460   20.6462 H           1 MOL       0.0313
     44 H4         27.0545   35.3980   21.7870 H           1 MOL       0.0313
     45 H5         27.3182   36.9460   23.4994 H           1 MOL       0.0503
     46 H6         27.1066   38.3218   22.3741 H           1 MOL       0.0503
     47 H7         24.3036   34.3525   21.7967 H           1 MOL       0.0634
     48 H8         25.4217   34.2241   20.4376 H           1 MOL       0.0634
     49 H9         21.8564   34.9846   18.1036 H           1 MOL       0.1873
     50 H10        20.2034   36.8180   19.7054 H           1 MOL       0.0604
     51 H11        19.9119   38.1473   17.7142 H           1 MOL       0.0449
     52 H12        20.7829   37.0019   16.7267 H           1 MOL       0.0449
     53 H13        22.7462   38.0693   15.9887 H           1 MOL       0.0557
     54 H14        24.7293   39.3718   16.3880 H           1 MOL       0.0599
     55 H15        25.1711   40.2978   18.5910 H           1 MOL       0.0559
     56 H16        23.6145   39.8787   20.4116 H           1 MOL       0.0599
     57 H17        21.6293   38.5809   20.0326 H           1 MOL       0.0557
     58 H18        18.2713   36.3064   18.5372 H           1 MOL       0.0634
     59 H19        19.3916   33.8567   19.3532 H           1 MOL       0.2100
     60 H20        19.5860   33.9654   17.1176 H           1 MOL       0.0504
     61 H21        19.3096   35.4768   16.2952 H           1 MOL       0.0504
     62 H22        18.6265   33.5226   14.9383 H           1 MOL       0.0481
     63 H23        17.1631   34.3783   14.5449 H           1 MOL       0.0481
     64 H24        15.7918   32.5244   15.0683 H           1 MOL       0.0314
     65 H25        16.6824   30.6152   13.8263 H           1 MOL       0.0233
     66 H26        18.3139   31.3139   13.8840 H           1 MOL       0.0233
     67 H27        17.0147   32.1527   13.0213 H           1 MOL       0.0233
     68 H28        16.2006   30.6605   16.4356 H           1 MOL       0.0266
     69 H29        16.7528   32.0598   17.3402 H           1 MOL       0.0266
     70 H30        18.3196   30.2373   17.6805 H           1 MOL       0.0230
     71 H31        19.1523   31.4649   16.7035 H           1 MOL       0.0230
     72 H32        18.5172   29.9861   15.9346 H           1 MOL       0.0230
     73 H33        14.0526   36.6289   18.2523 H           1 MOL       0.0580
     74 H34        13.7196   39.0173   18.4917 H           1 MOL       0.0584
     75 H35        17.6854   37.3490   16.1951 H           1 MOL       0.0592
     76 H36        16.6606   42.5653   17.0974 H           1 MOL       0.1260
@<TRIPOS>BOND
     1     1     2   2
     2     2     3  am
     3     2     6   1
     4     3     4   1
     5     4     5   1
     6     4     7   1
     7     5     6   1
     8     7     8   1
     9     8     9   1
    10     9    10   2
    11     9    11  am
    12    11    12   1
    13    12    13   1
    14    12    20   1
    15    13    14   1
    16    14    15  ar
    17    14    19  ar
    18    15    16  ar
    19    16    17  ar
    20    17    18  ar
    21    18    19  ar
    22    20    21   1
    23    20    22   1
    24    22    23   1
    25    23    24   1
    26    23    29  am
    27    24    25   1
    28    25    26   1
    29    25    27   1
    30    27    28   1
    31    29    30   2
    32    29    31   2
    33    29    32   1
    34    32    33  ar
    35    32    35  ar
    36    33    34  ar
    37    34    40  ar
    38    35    36  ar
    39    36    37   1
    40    36    40  ar
    41    37    38   1
    42    38    39   2
    43    39    40   1
    44     3    41   1
    45     4    42   1
    46     5    43   1
    47     5    44   1
    48     6    45   1
    49     6    46   1
    50     7    47   1
    51     7    48   1
    52    11    49   1
    53    12    50   1
    54    13    51   1
    55    13    52   1
    56    15    53   1
    57    16    54   1
    58    17    55   1
    59    18    56   1
    60    19    57   1
    61    20    58   1
    62    21    59   1
    63    22    60   1
    64    22    61   1
    65    24    62   1
    66    24    63   1
    67    25    64   1
    68    26    65   1
    69    26    66   1
    70    26    67   1
    71    27    68   1
    72    27    69   1
    73    28    70   1
    74    28    71   1
    75    28    72   1
    76    33    73   1
    77    34    74   1
    78    35    75   1
    79    38    76   1
@<TRIPOS>SUBSTRUCTURE
     1  MOL      2

