@<TRIPOS>MOLECULE
4djr_ligand_097
    76    79
SMALL
GAST_HUCK
****
This file was generated by PARSER (from files_GN.cpp)

@<TRIPOS>ATOM
      1 O28        16.3532   39.7187   16.2263 O.2         1 MOL      -0.3971
      2 C27        16.4137   39.1279   17.2948 C.2         1 MOL       0.1764
      3 N29        17.0900   38.0233   17.4492 N.am        1 MOL      -0.2812
      4 C24        17.0392   37.4695   18.7502 C.3         1 MOL       0.0716
      5 C25        16.1792   38.5044   19.5332 C.3         1 MOL      -0.0105
      6 C26        15.7863   39.5817   18.5000 C.3         1 MOL       0.0394
      7 C22        16.4666   36.0269   18.7514 C.3         1 MOL       0.1003
      8 O23        17.4330   35.0103   18.4234 O.3         1 MOL      -0.2616
      9 C21        17.8674   34.6201   17.1988 C.2         1 MOL       0.3200
     10 O22        17.3695   35.1848   16.0647 O.2         1 MOL      -0.3775
     11 N20        18.8509   33.6781   17.1489 N.am        1 MOL      -0.2550
     12 C19        19.7197   33.3915   16.0322 C.3         1 MOL       0.0807
     13 C32        19.0064   33.2365   14.6420 C.3         1 MOL       0.0064
     14 C38        18.3814   31.9347   14.2525 C.ar        1 MOL      -0.0408
     15 C37        18.4418   31.5433   12.8869 C.ar        1 MOL      -0.0603
     16 C36        17.9047   30.3199   12.4491 C.ar        1 MOL      -0.0686
     17 C35        17.2652   29.4715   13.3648 C.ar        1 MOL      -0.0687
     18 C34        17.1587   29.8529   14.7151 C.ar        1 MOL      -0.0686
     19 C33        17.7099   31.0702   15.1547 C.ar        1 MOL      -0.0603
     20 C17        20.8831   34.4612   16.0026 C.3         1 MOL       0.0967
     21 O18        21.8704   34.0681   15.0356 O.3         1 MOL      -0.3877
     22 C16        21.6136   34.6724   17.3713 C.3         1 MOL       0.0579
     23 N11        21.8063   36.0554   17.7591 N.am        1 MOL      -0.2317
     24 C12        22.5388   36.9749   16.9104 C.3         1 MOL       0.0322
     25 C13        21.7700   38.3210   16.6205 C.3         1 MOL      -0.0270
     26 C14        22.4974   39.5238   17.2941 C.3         1 MOL      -0.0610
     27 C15        21.5408   38.5845   15.0867 C.3         1 MOL      -0.0518
     28 C18        20.4359   39.6176   14.7523 C.3         1 MOL      -0.0650
     29 S8         21.5856   36.5155   19.3777 S.o2        1 MOL       0.0679
     30 O10        20.6896   35.4726   20.1807 O.2         1 MOL      -0.1506
     31 O9         20.7174   37.8451   19.4565 O.2         1 MOL      -0.1506
     32 C5         23.0838   36.6611   20.2569 C.ar        1 MOL       0.1007
     33 C6         23.8468   35.4989   20.5239 C.ar        1 MOL      -0.0433
     34 C7         25.0760   35.5798   21.2132 C.ar        1 MOL      -0.0517
     35 C4         23.5653   37.9227   20.6753 C.ar        1 MOL      -0.0206
     36 C3         24.7904   37.9835   21.3542 C.ar        1 MOL       0.0595
     37 S1         25.6622   39.3209   21.9867 S.3         1 MOL       0.0026
     38 C1         26.9575   38.3554   22.5779 C.2         1 MOL       0.0809
     39 N1         26.7166   37.0602   22.2911 N.2         1 MOL      -0.2931
     40 C2         25.5486   36.8376   21.6277 C.ar        1 MOL       0.0375
     41 H1         17.5969   37.6184   16.7270 H           1 MOL       0.1855
     42 H2         18.0535   37.4558   19.1560 H           1 MOL       0.0584
     43 H3         16.7618   38.9523   20.3430 H           1 MOL       0.0313
     44 H4         15.2797   38.0572   19.9694 H           1 MOL       0.0313
     45 H5         14.7006   39.6389   18.3662 H           1 MOL       0.0503
     46 H6         16.1769   40.5673   18.7800 H           1 MOL       0.0503
     47 H7         15.5838   35.9561   18.1059 H           1 MOL       0.0634
     48 H8         16.1476   35.7987   19.7671 H           1 MOL       0.0634
     49 H9         19.1052   33.2702   17.9994 H           1 MOL       0.1873
     50 H10        20.2018   32.4280   16.2478 H           1 MOL       0.0604
     51 H11        19.7632   33.4385   13.8784 H           1 MOL       0.0449
     52 H12        18.2522   34.0196   14.5185 H           1 MOL       0.0449
     53 H13        18.9005   32.1448   12.1998 H           1 MOL       0.0557
     54 H14        17.9739   30.0534   11.4651 H           1 MOL       0.0599
     55 H15        16.8714   28.5857   13.0510 H           1 MOL       0.0559
     56 H16        16.6693   29.2482   15.3751 H           1 MOL       0.0599
     57 H17        17.6184   31.3209   16.1395 H           1 MOL       0.0557
     58 H18        20.4568   35.4092   15.6646 H           1 MOL       0.0634
     59 H19        22.2759   34.8955   14.7049 H           1 MOL       0.2100
     60 H20        22.5934   34.1881   17.3500 H           1 MOL       0.0504
     61 H21        21.0552   34.1391   18.1419 H           1 MOL       0.0504
     62 H22        22.8123   36.5049   15.9699 H           1 MOL       0.0481
     63 H23        23.5057   37.1772   17.3772 H           1 MOL       0.0481
     64 H24        20.7732   38.2549   17.0628 H           1 MOL       0.0314
     65 H25        21.9071   40.4379   17.2247 H           1 MOL       0.0233
     66 H26        23.4694   39.6936   16.8211 H           1 MOL       0.0233
     67 H27        22.6660   39.3231   18.3511 H           1 MOL       0.0233
     68 H28        21.2626   37.6426   14.5982 H           1 MOL       0.0266
     69 H29        22.4797   38.9191   14.6362 H           1 MOL       0.0266
     70 H30        20.3815   39.7519   13.6683 H           1 MOL       0.0230
     71 H31        20.6599   40.5856   15.1974 H           1 MOL       0.0230
     72 H32        19.4682   39.2719   15.1109 H           1 MOL       0.0230
     73 H33        23.5151   34.5826   20.2141 H           1 MOL       0.0580
     74 H34        25.6161   34.7335   21.4037 H           1 MOL       0.0584
     75 H35        23.0434   38.7814   20.4895 H           1 MOL       0.0592
     76 H36        27.7832   38.7085   23.0670 H           1 MOL       0.1260
@<TRIPOS>BOND
     1     1     2   2
     2     2     3  am
     3     2     6   1
     4     3     4   1
     5     4     5   1
     6     4     7   1
     7     5     6   1
     8     7     8   1
     9     8     9   1
    10     9    10   2
    11     9    11  am
    12    11    12   1
    13    12    13   1
    14    12    20   1
    15    13    14   1
    16    14    15  ar
    17    14    19  ar
    18    15    16  ar
    19    16    17  ar
    20    17    18  ar
    21    18    19  ar
    22    20    21   1
    23    20    22   1
    24    22    23   1
    25    23    24   1
    26    23    29  am
    27    24    25   1
    28    25    26   1
    29    25    27   1
    30    27    28   1
    31    29    30   2
    32    29    31   2
    33    29    32   1
    34    32    33  ar
    35    32    35  ar
    36    33    34  ar
    37    34    40  ar
    38    35    36  ar
    39    36    37   1
    40    36    40  ar
    41    37    38   1
    42    38    39   2
    43    39    40   1
    44     3    41   1
    45     4    42   1
    46     5    43   1
    47     5    44   1
    48     6    45   1
    49     6    46   1
    50     7    47   1
    51     7    48   1
    52    11    49   1
    53    12    50   1
    54    13    51   1
    55    13    52   1
    56    15    53   1
    57    16    54   1
    58    17    55   1
    59    18    56   1
    60    19    57   1
    61    20    58   1
    62    21    59   1
    63    22    60   1
    64    22    61   1
    65    24    62   1
    66    24    63   1
    67    25    64   1
    68    26    65   1
    69    26    66   1
    70    26    67   1
    71    27    68   1
    72    27    69   1
    73    28    70   1
    74    28    71   1
    75    28    72   1
    76    33    73   1
    77    34    74   1
    78    35    75   1
    79    38    76   1
@<TRIPOS>SUBSTRUCTURE
     1  MOL      2

