@<TRIPOS>MOLECULE
4djr_ligand_062
    76    79
SMALL
GAST_HUCK
****
This file was generated by PARSER (from files_GN.cpp)

@<TRIPOS>ATOM
      1 O28        13.6032   31.0367   16.3872 O.2         1 MOL      -0.3971
      2 C27        14.4959   31.8383   16.6157 C.2         1 MOL       0.1764
      3 N29        14.3057   32.9326   17.3070 N.am        1 MOL      -0.2812
      4 C24        15.4672   33.7067   17.5012 C.3         1 MOL       0.0716
      5 C25        16.5285   32.9603   16.6534 C.3         1 MOL      -0.0105
      6 C26        15.8502   31.6533   16.1948 C.3         1 MOL       0.0394
      7 C22        15.2470   35.1988   17.1156 C.3         1 MOL       0.1003
      8 O23        16.4879   35.9054   16.9865 O.3         1 MOL      -0.2616
      9 C21        17.4988   35.9457   17.8908 C.2         1 MOL       0.3200
     10 O22        17.3754   35.3179   19.0864 O.2         1 MOL      -0.3775
     11 N20        18.6761   36.4593   17.4725 N.am        1 MOL      -0.2550
     12 C19        19.9491   36.2441   18.1061 C.3         1 MOL       0.0807
     13 C32        20.0373   36.8918   19.5329 C.3         1 MOL       0.0064
     14 C38        21.4173   37.2747   19.9329 C.ar        1 MOL      -0.0408
     15 C37        21.8991   38.5809   19.6560 C.ar        1 MOL      -0.0603
     16 C36        23.1938   38.9646   20.0391 C.ar        1 MOL      -0.0686
     17 C35        24.0323   38.0544   20.7095 C.ar        1 MOL      -0.0687
     18 C34        23.5661   36.7595   20.9997 C.ar        1 MOL      -0.0686
     19 C33        22.2658   36.3780   20.6177 C.ar        1 MOL      -0.0603
     20 C17        20.3043   34.7065   18.0240 C.3         1 MOL       0.0967
     21 O18        21.4118   34.4018   18.8750 O.3         1 MOL      -0.3877
     22 C16        20.6009   34.2583   16.5534 C.3         1 MOL       0.0579
     23 N11        21.0674   32.8990   16.3527 N.am        1 MOL      -0.2317
     24 C12        22.4066   32.4935   16.7516 C.3         1 MOL       0.0322
     25 C13        23.6354   32.7740   15.8091 C.3         1 MOL      -0.0270
     26 C14        24.0131   31.5974   14.8651 C.3         1 MOL      -0.0610
     27 C15        23.6256   34.1417   15.0606 C.3         1 MOL      -0.0518
     28 C18        22.6653   34.2380   13.8490 C.3         1 MOL      -0.0650
     29 S8         19.9272   31.7173   15.9218 S.o2        1 MOL       0.0679
     30 O10        18.8223   32.3523   14.9649 O.2         1 MOL      -0.1506
     31 O9         19.1641   31.2079   17.2200 O.2         1 MOL      -0.1506
     32 C5         20.5102   30.3534   15.0008 C.ar        1 MOL       0.1007
     33 C6         20.7696   29.1202   15.6451 C.ar        1 MOL      -0.0433
     34 C7         21.3095   28.0321   14.9285 C.ar        1 MOL      -0.0517
     35 C4         20.7366   30.4751   13.6078 C.ar        1 MOL      -0.0206
     36 C3         21.2865   29.3864   12.9200 C.ar        1 MOL       0.0595
     37 S1         21.7549   29.2215   11.2788 S.3         1 MOL       0.0026
     38 C1         22.3036   27.6021   11.4695 C.2         1 MOL       0.0809
     39 N1         22.1320   27.2213   12.7550 N.2         1 MOL      -0.2931
     40 C2         21.5807   28.1696   13.5583 C.ar        1 MOL       0.0375
     41 H1         13.4523   33.1672   17.6993 H           1 MOL       0.1855
     42 H2         15.7336   33.6363   18.5587 H           1 MOL       0.0584
     43 H3         17.4149   32.7499   17.2559 H           1 MOL       0.0313
     44 H4         16.8290   33.5448   15.7783 H           1 MOL       0.0313
     45 H5         15.9118   31.5340   15.1083 H           1 MOL       0.0503
     46 H6         16.2841   30.7778   16.6878 H           1 MOL       0.0503
     47 H7         14.6171   35.6908   17.8617 H           1 MOL       0.0634
     48 H8         14.7420   35.2599   16.1496 H           1 MOL       0.0634
     49 H9         18.6894   36.8675   16.5901 H           1 MOL       0.1873
     50 H10        20.6575   36.7847   17.4708 H           1 MOL       0.0604
     51 H11        19.6098   36.1994   20.2622 H           1 MOL       0.0449
     52 H12        19.4170   37.7893   19.5629 H           1 MOL       0.0449
     53 H13        21.3010   39.2603   19.1789 H           1 MOL       0.0557
     54 H14        23.5325   39.9089   19.8302 H           1 MOL       0.0599
     55 H15        24.9740   38.3347   20.9874 H           1 MOL       0.0559
     56 H16        24.1684   36.0998   21.4976 H           1 MOL       0.0599
     57 H17        21.9446   35.4361   20.8543 H           1 MOL       0.0557
     58 H18        19.4606   34.1128   18.4040 H           1 MOL       0.0634
     59 H19        21.1734   33.5338   19.2734 H           1 MOL       0.2100
     60 H20        21.3540   34.9459   16.1565 H           1 MOL       0.0504
     61 H21        19.7066   34.4443   15.9534 H           1 MOL       0.0504
     62 H22        22.4074   31.4251   17.0145 H           1 MOL       0.0481
     63 H23        22.6490   32.9983   17.6906 H           1 MOL       0.0481
     64 H24        24.4881   32.8405   16.4947 H           1 MOL       0.0314
     65 H25        25.0275   31.7465   14.4772 H           1 MOL       0.0233
     66 H26        23.3402   31.5403   14.0130 H           1 MOL       0.0233
     67 H27        23.9853   30.6420   15.4007 H           1 MOL       0.0233
     68 H28        24.6336   34.3483   14.7033 H           1 MOL       0.0266
     69 H29        23.3909   34.9348   15.7777 H           1 MOL       0.0266
     70 H30        22.4338   35.2825   13.6372 H           1 MOL       0.0230
     71 H31        21.7236   33.7155   14.0249 H           1 MOL       0.0230
     72 H32        23.1366   33.8044   12.9664 H           1 MOL       0.0230
     73 H33        20.5797   29.0088   16.6420 H           1 MOL       0.0580
     74 H34        21.5094   27.1561   15.4091 H           1 MOL       0.0584
     75 H35        20.5592   31.3553   13.1147 H           1 MOL       0.0592
     76 H36        22.7029   27.0244   10.7308 H           1 MOL       0.1260
@<TRIPOS>BOND
     1     1     2   2
     2     2     3  am
     3     2     6   1
     4     3     4   1
     5     4     5   1
     6     4     7   1
     7     5     6   1
     8     7     8   1
     9     8     9   1
    10     9    10   2
    11     9    11  am
    12    11    12   1
    13    12    13   1
    14    12    20   1
    15    13    14   1
    16    14    15  ar
    17    14    19  ar
    18    15    16  ar
    19    16    17  ar
    20    17    18  ar
    21    18    19  ar
    22    20    21   1
    23    20    22   1
    24    22    23   1
    25    23    24   1
    26    23    29  am
    27    24    25   1
    28    25    26   1
    29    25    27   1
    30    27    28   1
    31    29    30   2
    32    29    31   2
    33    29    32   1
    34    32    33  ar
    35    32    35  ar
    36    33    34  ar
    37    34    40  ar
    38    35    36  ar
    39    36    37   1
    40    36    40  ar
    41    37    38   1
    42    38    39   2
    43    39    40   1
    44     3    41   1
    45     4    42   1
    46     5    43   1
    47     5    44   1
    48     6    45   1
    49     6    46   1
    50     7    47   1
    51     7    48   1
    52    11    49   1
    53    12    50   1
    54    13    51   1
    55    13    52   1
    56    15    53   1
    57    16    54   1
    58    17    55   1
    59    18    56   1
    60    19    57   1
    61    20    58   1
    62    21    59   1
    63    22    60   1
    64    22    61   1
    65    24    62   1
    66    24    63   1
    67    25    64   1
    68    26    65   1
    69    26    66   1
    70    26    67   1
    71    27    68   1
    72    27    69   1
    73    28    70   1
    74    28    71   1
    75    28    72   1
    76    33    73   1
    77    34    74   1
    78    35    75   1
    79    38    76   1
@<TRIPOS>SUBSTRUCTURE
     1  MOL      2

