@<TRIPOS>MOLECULE
4djr_ligand_053
    76    79
SMALL
GAST_HUCK
****
This file was generated by PARSER (from files_GN.cpp)

@<TRIPOS>ATOM
      1 O28        17.2011   28.0163   13.2719 O.2         1 MOL      -0.3971
      2 C27        17.4361   29.1976   13.4805 C.2         1 MOL       0.1764
      3 N29        17.4909   29.7047   14.6844 N.am        1 MOL      -0.2812
      4 C24        17.8118   31.0837   14.7201 C.3         1 MOL       0.0716
      5 C25        17.8984   31.4718   13.2183 C.3         1 MOL      -0.0105
      6 C26        17.7243   30.1464   12.4458 C.3         1 MOL       0.0394
      7 C22        16.7651   31.8891   15.5252 C.3         1 MOL       0.1003
      8 O23        17.1975   33.2561   15.6500 O.3         1 MOL      -0.2616
      9 C21        17.3463   33.9744   16.7925 C.2         1 MOL       0.3200
     10 O22        17.0175   33.4211   17.9847 O.2         1 MOL      -0.3775
     11 N20        17.7770   35.2551   16.6998 N.am        1 MOL      -0.2550
     12 C19        17.9541   36.1829   17.7908 C.3         1 MOL       0.0807
     13 C32        16.5918   36.4579   18.5350 C.3         1 MOL       0.0064
     14 C38        16.0283   37.8355   18.4477 C.ar        1 MOL      -0.0408
     15 C37        15.4143   38.4447   19.5703 C.ar        1 MOL      -0.0603
     16 C36        14.7591   39.6849   19.4492 C.ar        1 MOL      -0.0686
     17 C35        14.7204   40.3424   18.2088 C.ar        1 MOL      -0.0687
     18 C34        15.3333   39.7562   17.0861 C.ar        1 MOL      -0.0686
     19 C33        15.9686   38.5040   17.2031 C.ar        1 MOL      -0.0603
     20 C17        19.1505   35.7471   18.7084 C.3         1 MOL       0.0967
     21 O18        18.7511   34.7128   19.6149 O.3         1 MOL      -0.3877
     22 C16        19.8017   36.9042   19.5344 C.3         1 MOL       0.0579
     23 N11        21.0878   37.3932   19.0624 N.am        1 MOL      -0.2317
     24 C12        21.2218   38.7625   18.5663 C.3         1 MOL       0.0322
     25 C13        22.6337   39.4530   18.6685 C.3         1 MOL      -0.0270
     26 C14        23.5472   39.0879   17.4549 C.3         1 MOL      -0.0610
     27 C15        22.5712   41.0170   18.7896 C.3         1 MOL      -0.0518
     28 C18        21.8257   41.5382   20.0388 C.3         1 MOL      -0.0650
     29 S8         22.3114   36.2339   18.8265 S.o2        1 MOL       0.0679
     30 O10        22.0849   35.0733   19.8956 O.2         1 MOL      -0.1506
     31 O9         23.7534   36.6935   19.3217 O.2         1 MOL      -0.1506
     32 C5         22.4190   35.5057   17.2417 C.ar        1 MOL       0.1007
     33 C6         22.0091   36.2397   16.1011 C.ar        1 MOL      -0.0433
     34 C7         22.0065   35.6493   14.8215 C.ar        1 MOL      -0.0517
     35 C4         22.8582   34.1709   17.0805 C.ar        1 MOL      -0.0206
     36 C3         22.8546   33.6032   15.7965 C.ar        1 MOL       0.0595
     37 S1         23.2933   32.0374   15.2530 S.3         1 MOL       0.0026
     38 C1         22.9168   32.3618   13.6047 C.2         1 MOL       0.0809
     39 N1         22.4728   33.6312   13.4955 N.2         1 MOL      -0.2931
     40 C2         22.4317   34.3190   14.6681 C.ar        1 MOL       0.0375
     41 H1         17.3685   29.1713   15.4895 H           1 MOL       0.1855
     42 H2         18.7931   31.1908   15.1956 H           1 MOL       0.0584
     43 H3         18.8620   31.9345   12.9892 H           1 MOL       0.0313
     44 H4         17.1051   32.1711   12.9359 H           1 MOL       0.0313
     45 H5         16.8935   30.2047   11.7336 H           1 MOL       0.0503
     46 H6         18.6414   29.8692   11.9210 H           1 MOL       0.0503
     47 H7         16.6303   31.4239   16.5046 H           1 MOL       0.0634
     48 H8         15.8053   31.8730   15.0083 H           1 MOL       0.0634
     49 H9         17.9813   35.5867   15.8098 H           1 MOL       0.1873
     50 H10        18.2746   37.1063   17.3003 H           1 MOL       0.0604
     51 H11        16.6919   36.1710   19.5845 H           1 MOL       0.0449
     52 H12        15.8128   35.8059   18.1320 H           1 MOL       0.0449
     53 H13        15.4053   37.9720   20.4773 H           1 MOL       0.0557
     54 H14        14.2970   40.1007   20.2623 H           1 MOL       0.0599
     55 H15        14.2376   41.2392   18.1192 H           1 MOL       0.0559
     56 H16        15.2941   40.2284   16.1794 H           1 MOL       0.0599
     57 H17        16.3678   38.0729   16.3661 H           1 MOL       0.0557
     58 H18        19.9212   35.3058   18.0782 H           1 MOL       0.0634
     59 H19        19.3559   33.9522   19.4654 H           1 MOL       0.2100
     60 H20        19.9424   36.5623   20.5650 H           1 MOL       0.0504
     61 H21        19.0738   37.7161   19.6083 H           1 MOL       0.0504
     62 H22        20.5132   39.4008   19.1014 H           1 MOL       0.0481
     63 H23        20.8702   38.7872   17.5329 H           1 MOL       0.0481
     64 H24        23.1275   39.0785   19.5683 H           1 MOL       0.0314
     65 H25        24.5650   39.4621   17.6076 H           1 MOL       0.0233
     66 H26        23.1535   39.5341   16.5356 H           1 MOL       0.0233
     67 H27        23.6120   38.0095   17.3090 H           1 MOL       0.0233
     68 H28        22.1082   41.4337   17.8898 H           1 MOL       0.0266
     69 H29        23.5874   41.4169   18.8420 H           1 MOL       0.0266
     70 H30        21.8964   42.6257   20.0832 H           1 MOL       0.0230
     71 H31        22.2767   41.1300   20.9433 H           1 MOL       0.0230
     72 H32        20.7729   41.2641   20.0104 H           1 MOL       0.0230
     73 H33        21.7037   37.2039   16.1842 H           1 MOL       0.0580
     74 H34        21.7006   36.1901   14.0104 H           1 MOL       0.0584
     75 H35        23.1605   33.6036   17.8762 H           1 MOL       0.0592
     76 H36        23.0154   31.7009   12.8354 H           1 MOL       0.1260
@<TRIPOS>BOND
     1     1     2   2
     2     2     3  am
     3     2     6   1
     4     3     4   1
     5     4     5   1
     6     4     7   1
     7     5     6   1
     8     7     8   1
     9     8     9   1
    10     9    10   2
    11     9    11  am
    12    11    12   1
    13    12    13   1
    14    12    20   1
    15    13    14   1
    16    14    15  ar
    17    14    19  ar
    18    15    16  ar
    19    16    17  ar
    20    17    18  ar
    21    18    19  ar
    22    20    21   1
    23    20    22   1
    24    22    23   1
    25    23    24   1
    26    23    29  am
    27    24    25   1
    28    25    26   1
    29    25    27   1
    30    27    28   1
    31    29    30   2
    32    29    31   2
    33    29    32   1
    34    32    33  ar
    35    32    35  ar
    36    33    34  ar
    37    34    40  ar
    38    35    36  ar
    39    36    37   1
    40    36    40  ar
    41    37    38   1
    42    38    39   2
    43    39    40   1
    44     3    41   1
    45     4    42   1
    46     5    43   1
    47     5    44   1
    48     6    45   1
    49     6    46   1
    50     7    47   1
    51     7    48   1
    52    11    49   1
    53    12    50   1
    54    13    51   1
    55    13    52   1
    56    15    53   1
    57    16    54   1
    58    17    55   1
    59    18    56   1
    60    19    57   1
    61    20    58   1
    62    21    59   1
    63    22    60   1
    64    22    61   1
    65    24    62   1
    66    24    63   1
    67    25    64   1
    68    26    65   1
    69    26    66   1
    70    26    67   1
    71    27    68   1
    72    27    69   1
    73    28    70   1
    74    28    71   1
    75    28    72   1
    76    33    73   1
    77    34    74   1
    78    35    75   1
    79    38    76   1
@<TRIPOS>SUBSTRUCTURE
     1  MOL      2

