@<TRIPOS>MOLECULE
4djr_ligand_037
    76    79
SMALL
GAST_HUCK
****
This file was generated by PARSER (from files_GN.cpp)

@<TRIPOS>ATOM
      1 O28        22.5175   38.6654   17.3566 O.2         1 MOL      -0.3971
      2 C27        22.1687   37.8106   18.1563 C.2         1 MOL       0.1764
      3 N29        22.0809   36.5438   17.8430 N.am        1 MOL      -0.2812
      4 C24        21.6681   35.7066   18.9061 C.3         1 MOL       0.0716
      5 C25        21.4397   36.6975   20.0768 C.3         1 MOL      -0.0105
      6 C26        21.8553   38.0796   19.5271 C.3         1 MOL       0.0394
      7 C22        20.4325   34.8573   18.5182 C.3         1 MOL       0.1003
      8 O23        19.4925   35.6240   17.7573 O.3         1 MOL      -0.2616
      9 C21        18.1691   35.8526   17.9588 C.2         1 MOL       0.3200
     10 O22        17.5124   35.3381   19.0253 O.2         1 MOL      -0.3775
     11 N20        17.5782   36.6194   17.0202 N.am        1 MOL      -0.2550
     12 C19        16.2095   37.0352   16.9556 C.3         1 MOL       0.0807
     13 C32        15.2336   35.8413   16.6663 C.3         1 MOL       0.0064
     14 C38        15.7221   34.7714   15.7420 C.ar        1 MOL      -0.0408
     15 C37        15.3468   33.4206   15.9604 C.ar        1 MOL      -0.0603
     16 C36        15.8439   32.3830   15.1508 C.ar        1 MOL      -0.0686
     17 C35        16.7445   32.6750   14.1108 C.ar        1 MOL      -0.0687
     18 C34        17.1101   34.0097   13.8590 C.ar        1 MOL      -0.0686
     19 C33        16.5763   35.0499   14.6445 C.ar        1 MOL      -0.0603
     20 C17        15.7642   37.9022   18.1841 C.3         1 MOL       0.0967
     21 O18        14.5045   38.5084   17.8811 O.3         1 MOL      -0.3877
     22 C16        16.8176   38.9677   18.6503 C.3         1 MOL       0.0579
     23 N11        16.4005   40.3467   18.5566 N.am        1 MOL      -0.2317
     24 C12        16.4642   41.0467   17.2879 C.3         1 MOL       0.0322
     25 C13        17.8932   41.6147   16.9547 C.3         1 MOL      -0.0270
     26 C14        18.6587   40.7121   15.9386 C.3         1 MOL      -0.0610
     27 C15        17.8847   43.0767   16.3974 C.3         1 MOL      -0.0518
     28 C18        17.4019   44.1758   17.3719 C.3         1 MOL      -0.0650
     29 S8         15.7725   41.1200   19.9319 S.o2        1 MOL       0.0679
     30 O10        14.2046   41.3329   19.7557 O.2         1 MOL      -0.1506
     31 O9         16.4379   42.5566   20.0729 O.2         1 MOL      -0.1506
     32 C5         16.0605   40.2799   21.4373 C.ar        1 MOL       0.1007
     33 C6         15.1917   39.2325   21.8293 C.ar        1 MOL      -0.0433
     34 C7         15.4488   38.4737   22.9901 C.ar        1 MOL      -0.0517
     35 C4         17.2059   40.5648   22.2195 C.ar        1 MOL      -0.0206
     36 C3         17.4428   39.8002   23.3733 C.ar        1 MOL       0.0595
     37 S1         18.7011   39.8656   24.5387 S.3         1 MOL       0.0026
     38 C1         18.0925   38.5480   25.4633 C.2         1 MOL       0.0809
     39 N1         16.9598   38.0904   24.8883 N.2         1 MOL      -0.2931
     40 C2         16.5881   38.7557   23.7630 C.ar        1 MOL       0.0375
     41 H1         22.2820   36.2072   16.9539 H           1 MOL       0.1855
     42 H2         22.4935   35.0318   19.1471 H           1 MOL       0.0584
     43 H3         22.0598   36.4232   20.9345 H           1 MOL       0.0313
     44 H4         20.3943   36.7190   20.4016 H           1 MOL       0.0313
     45 H5         21.0362   38.8009   19.6025 H           1 MOL       0.0503
     46 H6         22.7367   38.4681   20.0467 H           1 MOL       0.0503
     47 H7         19.9721   34.4298   19.4112 H           1 MOL       0.0634
     48 H8         20.7541   34.0296   17.8821 H           1 MOL       0.0634
     49 H9         18.1509   36.9264   16.3001 H           1 MOL       0.1873
     50 H10        16.1575   37.6903   16.0832 H           1 MOL       0.0604
     51 H11        14.3105   36.2357   16.2416 H           1 MOL       0.0449
     52 H12        14.9725   35.3846   17.6260 H           1 MOL       0.0449
     53 H13        14.7031   33.1799   16.7183 H           1 MOL       0.0557
     54 H14        15.5648   31.4134   15.3299 H           1 MOL       0.0599
     55 H15        17.1317   31.9206   13.5408 H           1 MOL       0.0559
     56 H16        17.7711   34.2234   13.1079 H           1 MOL       0.0599
     57 H17        16.8526   36.0112   14.4302 H           1 MOL       0.0557
     58 H18        15.5795   37.2215   19.0235 H           1 MOL       0.0634
     59 H19        13.9791   38.4787   18.7141 H           1 MOL       0.2100
     60 H20        17.7430   38.8639   18.0917 H           1 MOL       0.0504
     61 H21        17.1164   38.7209   19.6707 H           1 MOL       0.0504
     62 H22        15.7239   41.8473   17.2820 H           1 MOL       0.0481
     63 H23        16.1367   40.3715   16.4923 H           1 MOL       0.0481
     64 H24        18.4846   41.6258   17.8764 H           1 MOL       0.0314
     65 H25        19.6820   41.0692   15.8063 H           1 MOL       0.0233
     66 H26        18.1626   40.7300   14.9677 H           1 MOL       0.0233
     67 H27        18.7143   39.6780   16.2717 H           1 MOL       0.0233
     68 H28        17.2676   43.1149   15.4951 H           1 MOL       0.0266
     69 H29        18.9044   43.3519   16.1079 H           1 MOL       0.0266
     70 H30        17.5661   45.1572   16.9223 H           1 MOL       0.0230
     71 H31        17.9559   44.1266   18.3107 H           1 MOL       0.0230
     72 H32        16.3368   44.0757   17.5778 H           1 MOL       0.0230
     73 H33        14.3742   38.9974   21.2632 H           1 MOL       0.0580
     74 H34        14.8167   37.7184   23.2629 H           1 MOL       0.0584
     75 H35        17.8661   41.2977   21.9549 H           1 MOL       0.0592
     76 H36        18.5207   38.1679   26.3079 H           1 MOL       0.1260
@<TRIPOS>BOND
     1     1     2   2
     2     2     3  am
     3     2     6   1
     4     3     4   1
     5     4     5   1
     6     4     7   1
     7     5     6   1
     8     7     8   1
     9     8     9   1
    10     9    10   2
    11     9    11  am
    12    11    12   1
    13    12    13   1
    14    12    20   1
    15    13    14   1
    16    14    15  ar
    17    14    19  ar
    18    15    16  ar
    19    16    17  ar
    20    17    18  ar
    21    18    19  ar
    22    20    21   1
    23    20    22   1
    24    22    23   1
    25    23    24   1
    26    23    29  am
    27    24    25   1
    28    25    26   1
    29    25    27   1
    30    27    28   1
    31    29    30   2
    32    29    31   2
    33    29    32   1
    34    32    33  ar
    35    32    35  ar
    36    33    34  ar
    37    34    40  ar
    38    35    36  ar
    39    36    37   1
    40    36    40  ar
    41    37    38   1
    42    38    39   2
    43    39    40   1
    44     3    41   1
    45     4    42   1
    46     5    43   1
    47     5    44   1
    48     6    45   1
    49     6    46   1
    50     7    47   1
    51     7    48   1
    52    11    49   1
    53    12    50   1
    54    13    51   1
    55    13    52   1
    56    15    53   1
    57    16    54   1
    58    17    55   1
    59    18    56   1
    60    19    57   1
    61    20    58   1
    62    21    59   1
    63    22    60   1
    64    22    61   1
    65    24    62   1
    66    24    63   1
    67    25    64   1
    68    26    65   1
    69    26    66   1
    70    26    67   1
    71    27    68   1
    72    27    69   1
    73    28    70   1
    74    28    71   1
    75    28    72   1
    76    33    73   1
    77    34    74   1
    78    35    75   1
    79    38    76   1
@<TRIPOS>SUBSTRUCTURE
     1  MOL      2

