@<TRIPOS>MOLECULE
4djr_ligand_022
    76    79
SMALL
GAST_HUCK
****
This file was generated by PARSER (from files_GN.cpp)

@<TRIPOS>ATOM
      1 O28        13.8665   41.8749   17.8887 O.2         1 MOL      -0.3971
      2 C27        14.7640   42.0837   17.0865 C.2         1 MOL       0.1764
      3 N29        15.4776   41.1219   16.5633 N.am        1 MOL      -0.2812
      4 C24        16.4444   41.5534   15.6245 C.3         1 MOL       0.0716
      5 C25        16.3027   43.1000   15.6524 C.3         1 MOL      -0.0105
      6 C26        15.0960   43.3789   16.5760 C.3         1 MOL       0.0394
      7 C22        17.8571   41.0336   15.9935 C.3         1 MOL       0.1003
      8 O23        17.8683   39.5997   16.0800 O.3         1 MOL      -0.2616
      9 C21        17.8299   38.8432   17.2089 C.2         1 MOL       0.3200
     10 O22        17.7092   39.4370   18.4207 O.2         1 MOL      -0.3775
     11 N20        17.8774   37.4974   17.0772 N.am        1 MOL      -0.2550
     12 C19        17.6845   36.5519   18.1425 C.3         1 MOL       0.0807
     13 C32        16.2059   36.0391   18.1050 C.3         1 MOL       0.0064
     14 C38        15.9065   34.9727   17.1100 C.ar        1 MOL      -0.0408
     15 C37        15.6849   33.6385   17.5251 C.ar        1 MOL      -0.0603
     16 C36        15.4201   32.6223   16.5905 C.ar        1 MOL      -0.0686
     17 C35        15.3551   32.9350   15.2202 C.ar        1 MOL      -0.0687
     18 C34        15.5634   34.2567   14.7932 C.ar        1 MOL      -0.0686
     19 C33        15.8402   35.2724   15.7279 C.ar        1 MOL      -0.0603
     20 C17        18.7910   35.4375   18.1239 C.3         1 MOL       0.0967
     21 O18        18.3640   34.3439   18.9467 O.3         1 MOL      -0.3877
     22 C16        20.2014   35.8981   18.6316 C.3         1 MOL       0.0579
     23 N11        21.2472   36.0246   17.6311 N.am        1 MOL      -0.2317
     24 C12        22.1917   34.9525   17.3813 C.3         1 MOL       0.0322
     25 C13        21.8506   33.9564   16.2237 C.3         1 MOL      -0.0270
     26 C14        21.1674   34.5988   14.9822 C.3         1 MOL      -0.0610
     27 C15        23.1087   33.1120   15.8181 C.3         1 MOL      -0.0518
     28 C18        24.1483   33.8195   14.9106 C.3         1 MOL      -0.0650
     29 S8         21.5240   37.5572   16.9462 S.o2        1 MOL       0.0679
     30 O10        20.4648   37.9817   15.8432 O.2         1 MOL      -0.1506
     31 O9         22.8779   37.5673   16.1089 O.2         1 MOL      -0.1506
     32 C5         21.8230   38.7813   18.1500 C.ar        1 MOL       0.1007
     33 C6         22.7539   38.5208   19.1829 C.ar        1 MOL      -0.0433
     34 C7         22.9549   39.4539   20.2203 C.ar        1 MOL      -0.0517
     35 C4         21.0984   39.9928   18.1488 C.ar        1 MOL      -0.0206
     36 C3         21.2982   40.9014   19.1979 C.ar        1 MOL       0.0595
     37 S1         20.5708   42.4159   19.5407 S.3         1 MOL       0.0026
     38 C1         21.4467   42.6503   21.0031 C.2         1 MOL       0.0809
     39 N1         22.2494   41.5832   21.2107 N.2         1 MOL      -0.2931
     40 C2         22.2053   40.6415   20.2349 C.ar        1 MOL       0.0375
     41 H1         15.3315   40.1850   16.7712 H           1 MOL       0.1855
     42 H2         16.1642   41.1647   14.6424 H           1 MOL       0.0584
     43 H3         16.1262   43.4943   14.6483 H           1 MOL       0.0313
     44 H4         17.1968   43.5833   16.0596 H           1 MOL       0.0313
     45 H5         15.3635   44.0568   17.3904 H           1 MOL       0.0503
     46 H6         14.2512   43.7883   16.0153 H           1 MOL       0.0503
     47 H7         18.1876   41.4817   16.9318 H           1 MOL       0.0634
     48 H8         18.5665   41.3315   15.2197 H           1 MOL       0.0634
     49 H9         17.9803   37.1461   16.1744 H           1 MOL       0.1873
     50 H10        17.7794   37.0647   19.1054 H           1 MOL       0.0604
     51 H11        15.5319   36.8831   17.9247 H           1 MOL       0.0449
     52 H12        15.9565   35.6786   19.1089 H           1 MOL       0.0449
     53 H13        15.7376   33.3854   18.5158 H           1 MOL       0.0557
     54 H14        15.2660   31.6629   16.9066 H           1 MOL       0.0599
     55 H15        15.1577   32.1961   14.5414 H           1 MOL       0.0559
     56 H16        15.5124   34.4852   13.7982 H           1 MOL       0.0599
     57 H17        15.9744   36.2311   15.3971 H           1 MOL       0.0557
     58 H18        18.8628   35.0387   17.1134 H           1 MOL       0.0634
     59 H19        19.0295   33.6290   18.8348 H           1 MOL       0.2100
     60 H20        20.5288   35.1993   19.4073 H           1 MOL       0.0504
     61 H21        20.1016   36.8429   19.1683 H           1 MOL       0.0504
     62 H22        22.3094   34.3559   18.2890 H           1 MOL       0.0481
     63 H23        23.1837   35.3767   17.2169 H           1 MOL       0.0481
     64 H24        21.1197   33.2481   16.6327 H           1 MOL       0.0314
     65 H25        21.0169   33.8475   14.2041 H           1 MOL       0.0233
     66 H26        21.7724   35.4120   14.5796 H           1 MOL       0.0233
     67 H27        20.1919   35.0084   15.2279 H           1 MOL       0.0233
     68 H28        22.7742   32.2131   15.2940 H           1 MOL       0.0266
     69 H29        23.6216   32.7752   16.7230 H           1 MOL       0.0266
     70 H30        25.0652   33.2288   14.8664 H           1 MOL       0.0230
     71 H31        24.3907   34.8137   15.2893 H           1 MOL       0.0230
     72 H32        23.7571   33.9148   13.8945 H           1 MOL       0.0230
     73 H33        23.2886   37.6501   19.1887 H           1 MOL       0.0580
     74 H34        23.6259   39.2541   20.9636 H           1 MOL       0.0584
     75 H35        20.4277   40.2140   17.4163 H           1 MOL       0.0592
     76 H36        21.3645   43.4577   21.6229 H           1 MOL       0.1260
@<TRIPOS>BOND
     1     1     2   2
     2     2     3  am
     3     2     6   1
     4     3     4   1
     5     4     5   1
     6     4     7   1
     7     5     6   1
     8     7     8   1
     9     8     9   1
    10     9    10   2
    11     9    11  am
    12    11    12   1
    13    12    13   1
    14    12    20   1
    15    13    14   1
    16    14    15  ar
    17    14    19  ar
    18    15    16  ar
    19    16    17  ar
    20    17    18  ar
    21    18    19  ar
    22    20    21   1
    23    20    22   1
    24    22    23   1
    25    23    24   1
    26    23    29  am
    27    24    25   1
    28    25    26   1
    29    25    27   1
    30    27    28   1
    31    29    30   2
    32    29    31   2
    33    29    32   1
    34    32    33  ar
    35    32    35  ar
    36    33    34  ar
    37    34    40  ar
    38    35    36  ar
    39    36    37   1
    40    36    40  ar
    41    37    38   1
    42    38    39   2
    43    39    40   1
    44     3    41   1
    45     4    42   1
    46     5    43   1
    47     5    44   1
    48     6    45   1
    49     6    46   1
    50     7    47   1
    51     7    48   1
    52    11    49   1
    53    12    50   1
    54    13    51   1
    55    13    52   1
    56    15    53   1
    57    16    54   1
    58    17    55   1
    59    18    56   1
    60    19    57   1
    61    20    58   1
    62    21    59   1
    63    22    60   1
    64    22    61   1
    65    24    62   1
    66    24    63   1
    67    25    64   1
    68    26    65   1
    69    26    66   1
    70    26    67   1
    71    27    68   1
    72    27    69   1
    73    28    70   1
    74    28    71   1
    75    28    72   1
    76    33    73   1
    77    34    74   1
    78    35    75   1
    79    38    76   1
@<TRIPOS>SUBSTRUCTURE
     1  MOL      2

