@<TRIPOS>MOLECULE
4djr_ligand_028
    76    79
SMALL
GAST_HUCK
****
This file was generated by PARSER (from files_GN.cpp)

@<TRIPOS>ATOM
      1 O28        19.1354   40.9959   20.1285 O.2         1 MOL      -0.3971
      2 C27        18.6365   41.2339   19.0349 C.2         1 MOL       0.1764
      3 N29        17.3675   41.0389   18.7752 N.am        1 MOL      -0.2812
      4 C24        16.9619   41.4818   17.4929 C.3         1 MOL       0.0716
      5 C25        18.3055   41.8370   16.8044 C.3         1 MOL      -0.0105
      6 C26        19.3531   41.8170   17.9421 C.3         1 MOL       0.0394
      7 C22        16.0896   40.4288   16.7629 C.3         1 MOL       0.1003
      8 O23        16.7926   39.2098   16.4810 O.3         1 MOL      -0.2616
      9 C21        16.7023   38.0163   17.1317 C.2         1 MOL       0.3200
     10 O22        15.8966   37.8772   18.2155 O.2         1 MOL      -0.3775
     11 N20        17.4030   36.9729   16.6266 N.am        1 MOL      -0.2550
     12 C19        17.2337   35.5851   16.9921 C.3         1 MOL       0.0807
     13 C32        16.8978   34.8176   15.6690 C.3         1 MOL       0.0064
     14 C38        16.6672   33.3606   15.8465 C.ar        1 MOL      -0.0408
     15 C37        17.7494   32.4402   15.7890 C.ar        1 MOL      -0.0603
     16 C36        17.5345   31.0647   15.9673 C.ar        1 MOL      -0.0686
     17 C35        16.2307   30.5727   16.1772 C.ar        1 MOL      -0.0687
     18 C34        15.1453   31.4775   16.2294 C.ar        1 MOL      -0.0686
     19 C33        15.3594   32.8525   16.0743 C.ar        1 MOL      -0.0603
     20 C17        18.4686   34.9713   17.7509 C.3         1 MOL       0.0967
     21 O18        17.9590   34.0616   18.7344 O.3         1 MOL      -0.3877
     22 C16        19.4037   35.9840   18.4993 C.3         1 MOL       0.0579
     23 N11        20.6423   36.3885   17.8528 N.am        1 MOL      -0.2317
     24 C12        21.4765   35.4326   17.1362 C.3         1 MOL       0.0322
     25 C13        21.4079   35.5343   15.5756 C.3         1 MOL      -0.0270
     26 C14        21.4532   37.0017   15.0692 C.3         1 MOL      -0.0610
     27 C15        22.4840   34.6359   14.8717 C.3         1 MOL      -0.0518
     28 C18        23.8940   34.5883   15.5179 C.3         1 MOL      -0.0650
     29 S8         21.4536   37.7220   18.5262 S.o2        1 MOL       0.0679
     30 O10        20.4185   38.8223   19.0266 O.2         1 MOL      -0.1506
     31 O9         22.2497   38.5171   17.3989 O.2         1 MOL      -0.1506
     32 C5         22.5500   37.3912   19.8399 C.ar        1 MOL       0.1007
     33 C6         22.5330   36.1378   20.5024 C.ar        1 MOL      -0.0433
     34 C7         23.4356   35.8607   21.5508 C.ar        1 MOL      -0.0517
     35 C4         23.4786   38.3779   20.2443 C.ar        1 MOL      -0.0206
     36 C3         24.3711   38.0856   21.2883 C.ar        1 MOL       0.0595
     37 S1         25.6049   39.0200   22.0264 S.3         1 MOL       0.0026
     38 C1         26.0527   37.7845   23.1415 C.2         1 MOL       0.0809
     39 N1         25.2745   36.7014   22.9336 N.2         1 MOL      -0.2931
     40 C2         24.3582   36.8419   21.9438 C.ar        1 MOL       0.0375
     41 H1         16.7377   40.7376   19.4525 H           1 MOL       0.1855
     42 H2         16.3664   42.3895   17.6307 H           1 MOL       0.0584
     43 H3         18.2602   42.8249   16.3353 H           1 MOL       0.0313
     44 H4         18.5774   41.1006   16.0424 H           1 MOL       0.0313
     45 H5         20.2287   41.2162   17.6723 H           1 MOL       0.0503
     46 H6         19.6687   42.8276   18.2110 H           1 MOL       0.0503
     47 H7         15.7744   40.8415   15.8026 H           1 MOL       0.0634
     48 H8         15.1877   40.2445   17.3571 H           1 MOL       0.0634
     49 H9         17.9682   37.1555   15.8545 H           1 MOL       0.1873
     50 H10        16.3552   35.4874   17.6466 H           1 MOL       0.0604
     51 H11        17.7046   34.9662   14.9467 H           1 MOL       0.0449
     52 H12        16.0060   35.2619   15.2136 H           1 MOL       0.0449
     53 H13        18.7052   32.7779   15.6263 H           1 MOL       0.0557
     54 H14        18.3204   30.4087   15.9248 H           1 MOL       0.0599
     55 H15        16.0760   29.5722   16.3020 H           1 MOL       0.0559
     56 H16        14.1959   31.1187   16.3776 H           1 MOL       0.0599
     57 H17        14.5572   33.4989   16.1135 H           1 MOL       0.0557
     58 H18        19.0808   34.3759   17.0609 H           1 MOL       0.0634
     59 H19        18.6871   33.4214   18.8625 H           1 MOL       0.2100
     60 H20        19.6950   35.5419   19.4605 H           1 MOL       0.0504
     61 H21        18.7957   36.8663   18.7399 H           1 MOL       0.0504
     62 H22        21.1870   34.4175   17.4325 H           1 MOL       0.0481
     63 H23        22.5353   35.5271   17.4300 H           1 MOL       0.0481
     64 H24        20.4392   35.1432   15.2511 H           1 MOL       0.0314
     65 H25        21.4344   37.0303   13.9735 H           1 MOL       0.0233
     66 H26        22.3489   37.5126   15.4330 H           1 MOL       0.0233
     67 H27        20.5750   37.5411   15.4263 H           1 MOL       0.0233
     68 H28        22.6017   34.9602   13.8348 H           1 MOL       0.0266
     69 H29        22.1081   33.6078   14.8384 H           1 MOL       0.0266
     70 H30        24.6022   34.0995   14.8376 H           1 MOL       0.0230
     71 H31        23.8692   34.0217   16.4546 H           1 MOL       0.0230
     72 H32        24.2652   35.5942   15.7287 H           1 MOL       0.0230
     73 H33        21.8705   35.4128   20.2236 H           1 MOL       0.0580
     74 H34        23.4143   34.9515   22.0224 H           1 MOL       0.0584
     75 H35        23.5174   39.2955   19.7935 H           1 MOL       0.0592
     76 H36        26.7966   37.8563   23.8328 H           1 MOL       0.1260
@<TRIPOS>BOND
     1     1     2   2
     2     2     3  am
     3     2     6   1
     4     3     4   1
     5     4     5   1
     6     4     7   1
     7     5     6   1
     8     7     8   1
     9     8     9   1
    10     9    10   2
    11     9    11  am
    12    11    12   1
    13    12    13   1
    14    12    20   1
    15    13    14   1
    16    14    15  ar
    17    14    19  ar
    18    15    16  ar
    19    16    17  ar
    20    17    18  ar
    21    18    19  ar
    22    20    21   1
    23    20    22   1
    24    22    23   1
    25    23    24   1
    26    23    29  am
    27    24    25   1
    28    25    26   1
    29    25    27   1
    30    27    28   1
    31    29    30   2
    32    29    31   2
    33    29    32   1
    34    32    33  ar
    35    32    35  ar
    36    33    34  ar
    37    34    40  ar
    38    35    36  ar
    39    36    37   1
    40    36    40  ar
    41    37    38   1
    42    38    39   2
    43    39    40   1
    44     3    41   1
    45     4    42   1
    46     5    43   1
    47     5    44   1
    48     6    45   1
    49     6    46   1
    50     7    47   1
    51     7    48   1
    52    11    49   1
    53    12    50   1
    54    13    51   1
    55    13    52   1
    56    15    53   1
    57    16    54   1
    58    17    55   1
    59    18    56   1
    60    19    57   1
    61    20    58   1
    62    21    59   1
    63    22    60   1
    64    22    61   1
    65    24    62   1
    66    24    63   1
    67    25    64   1
    68    26    65   1
    69    26    66   1
    70    26    67   1
    71    27    68   1
    72    27    69   1
    73    28    70   1
    74    28    71   1
    75    28    72   1
    76    33    73   1
    77    34    74   1
    78    35    75   1
    79    38    76   1
@<TRIPOS>SUBSTRUCTURE
     1  MOL      2

