@<TRIPOS>MOLECULE
4djr_ligand_041
    76    79
SMALL
GAST_HUCK
****
This file was generated by PARSER (from files_GN.cpp)

@<TRIPOS>ATOM
      1 O28        24.7223   34.5458   15.0612 O.2         1 MOL      -0.3971
      2 C27        23.6406   34.0129   14.8574 C.2         1 MOL       0.1764
      3 N29        22.5556   34.3226   15.5179 N.am        1 MOL      -0.2812
      4 C24        21.3920   33.6232   15.1015 C.3         1 MOL       0.0716
      5 C25        21.9892   32.5442   14.1554 C.3         1 MOL      -0.0105
      6 C26        23.4113   33.0445   13.8325 C.3         1 MOL       0.0394
      7 C22        20.5738   33.0561   16.2988 C.3         1 MOL       0.1003
      8 O23        19.4780   33.8685   16.7675 O.3         1 MOL      -0.2616
      9 C21        19.4377   35.1554   17.2021 C.2         1 MOL       0.3200
     10 O22        20.5528   35.9198   17.1157 O.2         1 MOL      -0.3775
     11 N20        18.2680   35.5848   17.7378 N.am        1 MOL      -0.2550
     12 C19        17.8940   36.8469   18.3459 C.3         1 MOL       0.0807
     13 C32        19.0647   37.8137   18.7364 C.3         1 MOL       0.0064
     14 C38        20.2459   37.2600   19.4725 C.ar        1 MOL      -0.0408
     15 C37        20.2551   36.0046   20.1341 C.ar        1 MOL      -0.0603
     16 C36        21.4295   35.5024   20.7325 C.ar        1 MOL      -0.0686
     17 C35        22.6077   36.2674   20.7100 C.ar        1 MOL      -0.0687
     18 C34        22.6131   37.5345   20.1035 C.ar        1 MOL      -0.0686
     19 C33        21.4384   38.0240   19.4986 C.ar        1 MOL      -0.0603
     20 C17        16.8045   37.5020   17.4213 C.3         1 MOL       0.0967
     21 O18        17.3996   37.9963   16.2213 O.3         1 MOL      -0.3877
     22 C16        15.8214   38.5517   18.0451 C.3         1 MOL       0.0579
     23 N11        16.3192   39.8441   18.4656 N.am        1 MOL      -0.2317
     24 C12        16.3342   40.2062   19.8761 C.3         1 MOL       0.0322
     25 C13        14.9297   40.1944   20.5997 C.3         1 MOL      -0.0270
     26 C14        14.7618   38.9308   21.5004 C.3         1 MOL      -0.0610
     27 C15        14.6259   41.4703   21.4624 C.3         1 MOL      -0.0518
     28 C18        14.7927   42.8213   20.7167 C.3         1 MOL      -0.0650
     29 S8         16.7311   41.0204   17.3051 S.o2        1 MOL       0.0679
     30 O10        17.1573   40.2882   15.9538 O.2         1 MOL      -0.1506
     31 O9         18.1309   41.7013   17.6588 O.2         1 MOL      -0.1506
     32 C5         15.6062   42.2358   16.7610 C.ar        1 MOL       0.1007
     33 C6         14.2717   42.2745   17.2409 C.ar        1 MOL      -0.0433
     34 C7         13.3586   43.2307   16.7549 C.ar        1 MOL      -0.0517
     35 C4         16.0096   43.1552   15.7598 C.ar        1 MOL      -0.0206
     36 C3         15.0764   44.0739   15.2601 C.ar        1 MOL       0.0595
     37 S1         15.2073   45.2582   14.0238 S.3         1 MOL       0.0026
     38 C1         13.5695   45.7748   14.1807 C.2         1 MOL       0.0809
     39 N1         12.9625   45.0454   15.1462 N.2         1 MOL      -0.2931
     40 C2         13.7578   44.1299   15.7471 C.ar        1 MOL       0.0375
     41 H1         22.5437   35.0038   16.2049 H           1 MOL       0.1855
     42 H2         20.7589   34.3096   14.5269 H           1 MOL       0.0584
     43 H3         21.3883   32.4312   13.2473 H           1 MOL       0.0313
     44 H4         22.0560   31.5744   14.6567 H           1 MOL       0.0313
     45 H5         24.1432   32.2353   13.8732 H           1 MOL       0.0503
     46 H6         23.4518   33.5316   12.8551 H           1 MOL       0.0503
     47 H7         21.2381   32.8440   17.1359 H           1 MOL       0.0634
     48 H8         20.1158   32.1114   16.0012 H           1 MOL       0.0634
     49 H9         17.5478   34.9390   17.6873 H           1 MOL       0.1873
     50 H10        17.3937   36.5818   19.2811 H           1 MOL       0.0604
     51 H11        18.6777   38.6252   19.3518 H           1 MOL       0.0449
     52 H12        19.4364   38.2604   17.8022 H           1 MOL       0.0449
     53 H13        19.4252   35.4156   20.1665 H           1 MOL       0.0557
     54 H14        21.4257   34.5810   21.1857 H           1 MOL       0.0599
     55 H15        23.4552   35.9139   21.1592 H           1 MOL       0.0559
     56 H16        23.4675   38.0955   20.0890 H           1 MOL       0.0599
     57 H17        21.4707   38.9376   19.0426 H           1 MOL       0.0557
     58 H18        16.1349   36.6834   17.0957 H           1 MOL       0.0634
     59 H19        18.0083   37.2947   15.9135 H           1 MOL       0.2100
     60 H20        15.3340   38.0547   18.8870 H           1 MOL       0.0504
     61 H21        15.0225   38.7276   17.3204 H           1 MOL       0.0504
     62 H22        16.7931   41.1927   20.0178 H           1 MOL       0.0481
     63 H23        17.0131   39.5211   20.4029 H           1 MOL       0.0481
     64 H24        14.1417   40.1415   19.8439 H           1 MOL       0.0314
     65 H25        13.7482   38.8740   21.9055 H           1 MOL       0.0233
     66 H26        15.4700   38.9590   22.3358 H           1 MOL       0.0233
     67 H27        14.9459   38.0262   20.9250 H           1 MOL       0.0233
     68 H28        15.2699   41.4832   22.3481 H           1 MOL       0.0266
     69 H29        13.5875   41.4338   21.8162 H           1 MOL       0.0266
     70 H30        14.4652   43.6419   21.3696 H           1 MOL       0.0230
     71 H31        14.1692   42.8325   19.8193 H           1 MOL       0.0230
     72 H32        15.8327   42.9961   20.4371 H           1 MOL       0.0230
     73 H33        13.9547   41.6006   17.9390 H           1 MOL       0.0580
     74 H34        12.4003   43.2608   17.1045 H           1 MOL       0.0584
     75 H35        16.9602   43.1301   15.3736 H           1 MOL       0.0592
     76 H36        13.1314   46.5007   13.6246 H           1 MOL       0.1260
@<TRIPOS>BOND
     1     1     2   2
     2     2     3  am
     3     2     6   1
     4     3     4   1
     5     4     5   1
     6     4     7   1
     7     5     6   1
     8     7     8   1
     9     8     9   1
    10     9    10   2
    11     9    11  am
    12    11    12   1
    13    12    13   1
    14    12    20   1
    15    13    14   1
    16    14    15  ar
    17    14    19  ar
    18    15    16  ar
    19    16    17  ar
    20    17    18  ar
    21    18    19  ar
    22    20    21   1
    23    20    22   1
    24    22    23   1
    25    23    24   1
    26    23    29  am
    27    24    25   1
    28    25    26   1
    29    25    27   1
    30    27    28   1
    31    29    30   2
    32    29    31   2
    33    29    32   1
    34    32    33  ar
    35    32    35  ar
    36    33    34  ar
    37    34    40  ar
    38    35    36  ar
    39    36    37   1
    40    36    40  ar
    41    37    38   1
    42    38    39   2
    43    39    40   1
    44     3    41   1
    45     4    42   1
    46     5    43   1
    47     5    44   1
    48     6    45   1
    49     6    46   1
    50     7    47   1
    51     7    48   1
    52    11    49   1
    53    12    50   1
    54    13    51   1
    55    13    52   1
    56    15    53   1
    57    16    54   1
    58    17    55   1
    59    18    56   1
    60    19    57   1
    61    20    58   1
    62    21    59   1
    63    22    60   1
    64    22    61   1
    65    24    62   1
    66    24    63   1
    67    25    64   1
    68    26    65   1
    69    26    66   1
    70    26    67   1
    71    27    68   1
    72    27    69   1
    73    28    70   1
    74    28    71   1
    75    28    72   1
    76    33    73   1
    77    34    74   1
    78    35    75   1
    79    38    76   1
@<TRIPOS>SUBSTRUCTURE
     1  MOL      2

