@<TRIPOS>MOLECULE
4djr_ligand_092
    76    79
SMALL
GAST_HUCK
****
This file was generated by PARSER (from files_GN.cpp)

@<TRIPOS>ATOM
      1 O28        14.0963   41.4979   20.2013 O.2         1 MOL      -0.3971
      2 C27        14.8024   40.8899   19.4103 C.2         1 MOL       0.1764
      3 N29        14.4573   39.7439   18.8797 N.am        1 MOL      -0.2812
      4 C24        15.4445   39.1683   18.0413 C.3         1 MOL       0.0716
      5 C25        16.5550   40.2535   18.0091 C.3         1 MOL      -0.0105
      6 C26        16.1222   41.3087   19.0487 C.3         1 MOL       0.0394
      7 C22        15.8990   37.7905   18.5870 C.3         1 MOL       0.1003
      8 O23        16.9786   37.2825   17.7914 O.3         1 MOL      -0.2616
      9 C21        17.7213   36.1732   18.0441 C.2         1 MOL       0.3200
     10 O22        17.4694   35.4175   19.1370 O.2         1 MOL      -0.3775
     11 N20        18.7278   35.8904   17.1893 N.am        1 MOL      -0.2550
     12 C19        19.7037   34.8394   17.3036 C.3         1 MOL       0.0807
     13 C32        20.5816   35.0080   18.5866 C.3         1 MOL       0.0064
     14 C38        21.4543   36.2168   18.5526 C.ar        1 MOL      -0.0408
     15 C37        21.3634   37.2185   19.5489 C.ar        1 MOL      -0.0603
     16 C36        22.2099   38.3449   19.5121 C.ar        1 MOL      -0.0686
     17 C35        23.1552   38.4840   18.4829 C.ar        1 MOL      -0.0687
     18 C34        23.2553   37.4992   17.4831 C.ar        1 MOL      -0.0686
     19 C33        22.4139   36.3714   17.5234 C.ar        1 MOL      -0.0603
     20 C17        19.1138   33.3959   17.1266 C.3         1 MOL       0.0967
     21 O18        20.1973   32.4727   16.9889 O.3         1 MOL      -0.3877
     22 C16        18.1376   33.2613   15.9086 C.3         1 MOL       0.0579
     23 N11        18.2287   32.0550   15.0946 N.am        1 MOL      -0.2317
     24 C12        18.2438   32.1731   13.6377 C.3         1 MOL       0.0322
     25 C13        19.6436   32.2180   12.9119 C.3         1 MOL      -0.0270
     26 C14        20.7921   32.7735   13.7986 C.3         1 MOL      -0.0610
     27 C15        20.0500   30.8515   12.2707 C.3         1 MOL      -0.0518
     28 C18        21.2269   30.8917   11.2711 C.3         1 MOL      -0.0650
     29 S8         17.7251   30.5827   15.7812 S.o2        1 MOL       0.0679
     30 O10        16.1327   30.5669   15.8370 O.2         1 MOL      -0.1506
     31 O9         18.2167   30.4173   17.2866 O.2         1 MOL      -0.1506
     32 C5         18.3170   29.1833   14.9179 C.ar        1 MOL       0.1007
     33 C6         17.4227   28.3291   14.2295 C.ar        1 MOL      -0.0433
     34 C7         17.8977   27.3255   13.3631 C.ar        1 MOL      -0.0517
     35 C4         19.7148   28.9886   14.7750 C.ar        1 MOL      -0.0206
     36 C3         20.1615   28.0163   13.8765 C.ar        1 MOL       0.0595
     37 S1         21.7423   27.6621   13.3073 S.3         1 MOL       0.0026
     38 C1         21.2167   26.4491   12.2035 C.2         1 MOL       0.0809
     39 N1         19.8688   26.3508   12.2637 N.2         1 MOL      -0.2931
     40 C2         19.2843   27.1927   13.1526 C.ar        1 MOL       0.0375
     41 H1         13.6198   39.2949   19.0834 H           1 MOL       0.1855
     42 H2         15.0209   39.0328   17.0413 H           1 MOL       0.0584
     43 H3         16.6036   40.7069   17.0135 H           1 MOL       0.0313
     44 H4         17.5439   39.8537   18.2526 H           1 MOL       0.0313
     45 H5         16.7748   41.2949   19.9260 H           1 MOL       0.0503
     46 H6         16.1059   42.3117   18.6149 H           1 MOL       0.0503
     47 H7         15.0617   37.0873   18.5494 H           1 MOL       0.0634
     48 H8         16.2261   37.8924   19.6260 H           1 MOL       0.0634
     49 H9         18.8103   36.4731   16.4118 H           1 MOL       0.1873
     50 H10        20.3682   34.9841   16.4501 H           1 MOL       0.0604
     51 H11        21.2413   34.1468   18.7099 H           1 MOL       0.0449
     52 H12        19.9312   35.0234   19.4628 H           1 MOL       0.0449
     53 H13        20.6837   37.1354   20.3072 H           1 MOL       0.0557
     54 H14        22.1411   39.0607   20.2394 H           1 MOL       0.0599
     55 H15        23.7740   39.2989   18.4588 H           1 MOL       0.0559
     56 H16        23.9442   37.5976   16.7338 H           1 MOL       0.0599
     57 H17        22.5150   35.6592   16.7961 H           1 MOL       0.0557
     58 H18        18.5689   33.1202   18.0339 H           1 MOL       0.0634
     59 H19        20.4721   32.2570   17.9045 H           1 MOL       0.2100
     60 H20        18.2772   34.1328   15.2630 H           1 MOL       0.0504
     61 H21        17.1089   33.3440   16.2763 H           1 MOL       0.0504
     62 H22        17.7015   33.0853   13.3700 H           1 MOL       0.0481
     63 H23        17.6348   31.3852   13.1863 H           1 MOL       0.0481
     64 H24        19.5254   32.9204   12.0803 H           1 MOL       0.0314
     65 H25        21.7083   32.9083   13.2243 H           1 MOL       0.0233
     66 H26        21.0063   32.0834   14.6153 H           1 MOL       0.0233
     67 H27        20.5247   33.7485   14.2041 H           1 MOL       0.0233
     68 H28        19.1985   30.4268   11.7348 H           1 MOL       0.0266
     69 H29        20.3323   30.1642   13.0690 H           1 MOL       0.0266
     70 H30        21.3228   29.9274   10.7698 H           1 MOL       0.0230
     71 H31        22.1677   31.0949   11.7868 H           1 MOL       0.0230
     72 H32        21.0673   31.6548   10.5066 H           1 MOL       0.0230
     73 H33        16.4140   28.4602   14.3135 H           1 MOL       0.0580
     74 H34        17.2428   26.7439   12.8365 H           1 MOL       0.0584
     75 H35        20.3841   29.6012   15.2485 H           1 MOL       0.0592
     76 H36        21.8220   25.9057   11.5896 H           1 MOL       0.1260
@<TRIPOS>BOND
     1     1     2   2
     2     2     3  am
     3     2     6   1
     4     3     4   1
     5     4     5   1
     6     4     7   1
     7     5     6   1
     8     7     8   1
     9     8     9   1
    10     9    10   2
    11     9    11  am
    12    11    12   1
    13    12    13   1
    14    12    20   1
    15    13    14   1
    16    14    15  ar
    17    14    19  ar
    18    15    16  ar
    19    16    17  ar
    20    17    18  ar
    21    18    19  ar
    22    20    21   1
    23    20    22   1
    24    22    23   1
    25    23    24   1
    26    23    29  am
    27    24    25   1
    28    25    26   1
    29    25    27   1
    30    27    28   1
    31    29    30   2
    32    29    31   2
    33    29    32   1
    34    32    33  ar
    35    32    35  ar
    36    33    34  ar
    37    34    40  ar
    38    35    36  ar
    39    36    37   1
    40    36    40  ar
    41    37    38   1
    42    38    39   2
    43    39    40   1
    44     3    41   1
    45     4    42   1
    46     5    43   1
    47     5    44   1
    48     6    45   1
    49     6    46   1
    50     7    47   1
    51     7    48   1
    52    11    49   1
    53    12    50   1
    54    13    51   1
    55    13    52   1
    56    15    53   1
    57    16    54   1
    58    17    55   1
    59    18    56   1
    60    19    57   1
    61    20    58   1
    62    21    59   1
    63    22    60   1
    64    22    61   1
    65    24    62   1
    66    24    63   1
    67    25    64   1
    68    26    65   1
    69    26    66   1
    70    26    67   1
    71    27    68   1
    72    27    69   1
    73    28    70   1
    74    28    71   1
    75    28    72   1
    76    33    73   1
    77    34    74   1
    78    35    75   1
    79    38    76   1
@<TRIPOS>SUBSTRUCTURE
     1  MOL      2

