@<TRIPOS>MOLECULE
4djr_ligand_077
    76    79
SMALL
GAST_HUCK
****
This file was generated by PARSER (from files_GN.cpp)

@<TRIPOS>ATOM
      1 O28        20.9916   32.6683   13.3216 O.2         1 MOL      -0.3971
      2 C27        21.9534   32.8587   14.0525 C.2         1 MOL       0.1764
      3 N29        22.1427   32.2086   15.1694 N.am        1 MOL      -0.2812
      4 C24        23.3332   32.5573   15.8530 C.3         1 MOL       0.0716
      5 C25        24.0039   33.5752   14.8877 C.3         1 MOL      -0.0105
      6 C26        22.9408   33.8561   13.8010 C.3         1 MOL       0.0394
      7 C22        23.0504   33.0709   17.2894 C.3         1 MOL       0.1003
      8 O23        22.8891   34.5003   17.3335 O.3         1 MOL      -0.2616
      9 C21        22.6817   35.2562   18.4472 C.2         1 MOL       0.3200
     10 O22        22.5299   34.6418   19.6593 O.2         1 MOL      -0.3775
     11 N20        22.3835   36.5638   18.2705 N.am        1 MOL      -0.2550
     12 C19        21.6779   37.4104   19.2025 C.3         1 MOL       0.0807
     13 C32        22.6671   38.4718   19.7899 C.3         1 MOL       0.0064
     14 C38        23.7537   38.0291   20.7058 C.ar        1 MOL      -0.0408
     15 C37        24.8674   38.8778   20.9459 C.ar        1 MOL      -0.0603
     16 C36        25.8719   38.5284   21.8655 C.ar        1 MOL      -0.0686
     17 C35        25.7885   37.3073   22.5685 C.ar        1 MOL      -0.0687
     18 C34        24.6733   36.4677   22.3782 C.ar        1 MOL      -0.0686
     19 C33        23.6558   36.8411   21.4814 C.ar        1 MOL      -0.0603
     20 C17        20.4908   38.1412   18.4874 C.3         1 MOL       0.0967
     21 O18        19.7171   38.8753   19.4371 O.3         1 MOL      -0.3877
     22 C16        19.5366   37.3061   17.5746 C.3         1 MOL       0.0579
     23 N11        18.5594   36.4293   18.1986 N.am        1 MOL      -0.2317
     24 C12        17.2543   36.9018   18.6094 C.3         1 MOL       0.0322
     25 C13        16.2955   37.3541   17.4601 C.3         1 MOL      -0.0270
     26 C14        16.5150   36.5654   16.1361 C.3         1 MOL      -0.0610
     27 C15        14.8041   37.3717   17.9386 C.3         1 MOL      -0.0518
     28 C18        13.9170   36.1890   17.4715 C.3         1 MOL      -0.0650
     29 S8         18.9028   34.7812   18.4289 S.o2        1 MOL       0.0679
     30 O10        18.8882   34.4302   19.9909 O.2         1 MOL      -0.1506
     31 O9         20.4365   34.5127   18.1238 O.2         1 MOL      -0.1506
     32 C5         18.0693   33.5612   17.4886 C.ar        1 MOL       0.1007
     33 C6         16.6666   33.3910   17.6307 C.ar        1 MOL      -0.0433
     34 C7         16.0009   32.3254   16.9754 C.ar        1 MOL      -0.0517
     35 C4         18.8014   32.6701   16.6706 C.ar        1 MOL      -0.0206
     36 C3         18.1352   31.5899   16.0807 C.ar        1 MOL       0.0595
     37 S1         18.7413   30.2628   15.1772 S.3         1 MOL       0.0026
     38 C1         17.1991   29.5262   15.0117 C.2         1 MOL       0.0809
     39 N1         16.2641   30.2804   15.6393 N.2         1 MOL      -0.2931
     40 C2         16.7533   31.3984   16.2320 C.ar        1 MOL       0.0375
     41 H1         21.5374   31.5176   15.4825 H           1 MOL       0.1855
     42 H2         23.9429   31.6474   15.9174 H           1 MOL       0.0584
     43 H3         24.8915   33.1229   14.4371 H           1 MOL       0.0313
     44 H4         24.3086   34.4933   15.3898 H           1 MOL       0.0313
     45 H5         22.5016   34.8423   13.9199 H           1 MOL       0.0503
     46 H6         23.3644   33.7554   12.8006 H           1 MOL       0.0503
     47 H7         23.8805   32.8007   17.9386 H           1 MOL       0.0634
     48 H8         22.1553   32.5681   17.6709 H           1 MOL       0.0634
     49 H9         22.5422   36.9403   17.3826 H           1 MOL       0.1873
     50 H10        21.2387   36.8295   20.0204 H           1 MOL       0.0604
     51 H11        22.1103   39.2410   20.3380 H           1 MOL       0.0449
     52 H12        23.1303   38.9879   18.9366 H           1 MOL       0.0449
     53 H13        24.9495   39.7662   20.4507 H           1 MOL       0.0557
     54 H14        26.6696   39.1461   22.0158 H           1 MOL       0.0599
     55 H15        26.5146   37.0517   23.2398 H           1 MOL       0.0559
     56 H16        24.5974   35.5990   22.9148 H           1 MOL       0.0599
     57 H17        22.8413   36.2392   21.4043 H           1 MOL       0.0557
     58 H18        20.9275   38.8961   17.8211 H           1 MOL       0.0634
     59 H19        19.1878   38.2128   19.9279 H           1 MOL       0.2100
     60 H20        20.1272   36.7476   16.8396 H           1 MOL       0.0504
     61 H21        18.9821   38.0373   16.9780 H           1 MOL       0.0504
     62 H22        17.3915   37.7450   19.2849 H           1 MOL       0.0481
     63 H23        16.7483   36.1384   19.2075 H           1 MOL       0.0481
     64 H24        16.5469   38.3952   17.2363 H           1 MOL       0.0314
     65 H25        15.8292   36.9130   15.3625 H           1 MOL       0.0233
     66 H26        16.3667   35.4893   16.2935 H           1 MOL       0.0233
     67 H27        17.5333   36.7057   15.7664 H           1 MOL       0.0233
     68 H28        14.3364   38.2979   17.5954 H           1 MOL       0.0266
     69 H29        14.7758   37.3936   19.0311 H           1 MOL       0.0266
     70 H30        12.9172   36.2811   17.9105 H           1 MOL       0.0230
     71 H31        14.3432   35.2317   17.7797 H           1 MOL       0.0230
     72 H32        13.8019   36.2017   16.3807 H           1 MOL       0.0230
     73 H33        16.1227   34.0186   18.2385 H           1 MOL       0.0580
     74 H34        14.9960   32.1836   17.1121 H           1 MOL       0.0584
     75 H35        19.8112   32.7502   16.5494 H           1 MOL       0.0592
     76 H36        17.0063   28.6520   14.5187 H           1 MOL       0.1260
@<TRIPOS>BOND
     1     1     2   2
     2     2     3  am
     3     2     6   1
     4     3     4   1
     5     4     5   1
     6     4     7   1
     7     5     6   1
     8     7     8   1
     9     8     9   1
    10     9    10   2
    11     9    11  am
    12    11    12   1
    13    12    13   1
    14    12    20   1
    15    13    14   1
    16    14    15  ar
    17    14    19  ar
    18    15    16  ar
    19    16    17  ar
    20    17    18  ar
    21    18    19  ar
    22    20    21   1
    23    20    22   1
    24    22    23   1
    25    23    24   1
    26    23    29  am
    27    24    25   1
    28    25    26   1
    29    25    27   1
    30    27    28   1
    31    29    30   2
    32    29    31   2
    33    29    32   1
    34    32    33  ar
    35    32    35  ar
    36    33    34  ar
    37    34    40  ar
    38    35    36  ar
    39    36    37   1
    40    36    40  ar
    41    37    38   1
    42    38    39   2
    43    39    40   1
    44     3    41   1
    45     4    42   1
    46     5    43   1
    47     5    44   1
    48     6    45   1
    49     6    46   1
    50     7    47   1
    51     7    48   1
    52    11    49   1
    53    12    50   1
    54    13    51   1
    55    13    52   1
    56    15    53   1
    57    16    54   1
    58    17    55   1
    59    18    56   1
    60    19    57   1
    61    20    58   1
    62    21    59   1
    63    22    60   1
    64    22    61   1
    65    24    62   1
    66    24    63   1
    67    25    64   1
    68    26    65   1
    69    26    66   1
    70    26    67   1
    71    27    68   1
    72    27    69   1
    73    28    70   1
    74    28    71   1
    75    28    72   1
    76    33    73   1
    77    34    74   1
    78    35    75   1
    79    38    76   1
@<TRIPOS>SUBSTRUCTURE
     1  MOL      2

