@<TRIPOS>MOLECULE
4djr_ligand_083
    76    79
SMALL
GAST_HUCK
****
This file was generated by PARSER (from files_GN.cpp)

@<TRIPOS>ATOM
      1 O28        14.0292   41.6877   20.2964 O.2         1 MOL      -0.3971
      2 C27        14.7545   41.1090   19.5066 C.2         1 MOL       0.1764
      3 N29        14.5033   39.9049   19.0572 N.am        1 MOL      -0.2812
      4 C24        15.5011   39.3809   18.2023 C.3         1 MOL       0.0716
      5 C25        16.5020   40.5601   18.0592 C.3         1 MOL      -0.0105
      6 C26        16.0019   41.6374   19.0441 C.3         1 MOL       0.0394
      7 C22        16.0929   38.0876   18.8054 C.3         1 MOL       0.1003
      8 O23        17.0271   37.5045   17.8885 O.3         1 MOL      -0.2616
      9 C21        17.6113   36.2859   18.0234 C.2         1 MOL       0.3200
     10 O22        17.3124   35.5020   19.0920 O.2         1 MOL      -0.3775
     11 N20        18.4904   35.8954   17.0703 N.am        1 MOL      -0.2550
     12 C19        19.2470   34.6691   17.0514 C.3         1 MOL       0.0807
     13 C32        20.2128   34.5677   18.2794 C.3         1 MOL       0.0064
     14 C38        21.1740   35.7025   18.3470 C.ar        1 MOL      -0.0408
     15 C37        21.0521   36.7138   19.3321 C.ar        1 MOL      -0.0603
     16 C36        21.9305   37.8144   19.3385 C.ar        1 MOL      -0.0686
     17 C35        22.9449   37.9139   18.3700 C.ar        1 MOL      -0.0687
     18 C34        23.0869   36.9088   17.3953 C.ar        1 MOL      -0.0686
     19 C33        22.2079   35.8106   17.3866 C.ar        1 MOL      -0.0603
     20 C17        18.3185   33.4173   16.8091 C.3         1 MOL       0.0967
     21 O18        18.6704   32.2610   17.5587 O.3         1 MOL      -0.3877
     22 C16        18.2020   33.0022   15.3058 C.3         1 MOL       0.0579
     23 N11        19.2377   32.2193   14.6345 N.am        1 MOL      -0.2317
     24 C12        20.6233   32.2416   15.0569 C.3         1 MOL       0.0322
     25 C13        21.5176   30.9642   14.8901 C.3         1 MOL      -0.0270
     26 C14        22.8863   31.1957   15.5991 C.3         1 MOL      -0.0610
     27 C15        20.8897   29.6010   15.3454 C.3         1 MOL      -0.0518
     28 C18        20.1509   29.5637   16.7058 C.3         1 MOL      -0.0650
     29 S8         18.9299   31.8625   13.0013 S.o2        1 MOL       0.0679
     30 O10        19.9132   32.6942   12.0656 O.2         1 MOL      -0.1506
     31 O9         17.4995   32.4184   12.5772 O.2         1 MOL      -0.1506
     32 C5         18.9009   30.1838   12.5501 C.ar        1 MOL       0.1007
     33 C6         19.8725   29.6605   11.6602 C.ar        1 MOL      -0.0433
     34 C7         19.9105   28.2797   11.3741 C.ar        1 MOL      -0.0517
     35 C4         17.9388   29.3274   13.1313 C.ar        1 MOL      -0.0206
     36 C3         17.9974   27.9590   12.8288 C.ar        1 MOL       0.0595
     37 S1         17.0429   26.6492   13.3798 S.3         1 MOL       0.0026
     38 C1         17.9149   25.4715   12.4800 C.2         1 MOL       0.0809
     39 N1         18.9012   26.0772   11.7867 N.2         1 MOL      -0.2931
     40 C2         18.9678   27.4235   11.9682 C.ar        1 MOL       0.0375
     41 H1         13.7243   39.3859   19.3266 H           1 MOL       0.1855
     42 H2         15.0477   39.1492   17.2359 H           1 MOL       0.0584
     43 H3         16.4781   40.9470   17.0369 H           1 MOL       0.0313
     44 H4         17.5308   40.2683   18.2908 H           1 MOL       0.0313
     45 H5         16.6923   41.7643   19.8821 H           1 MOL       0.0503
     46 H6         15.8521   42.5963   18.5432 H           1 MOL       0.0503
     47 H7         15.2884   37.3729   18.9904 H           1 MOL       0.0634
     48 H8         16.5921   38.3012   19.7551 H           1 MOL       0.0634
     49 H9         18.6329   36.5068   16.3266 H           1 MOL       0.1873
     50 H10        19.8937   34.7699   16.1783 H           1 MOL       0.0604
     51 H11        20.7976   33.6464   18.2219 H           1 MOL       0.0449
     52 H12        19.6346   34.5030   19.2043 H           1 MOL       0.0449
     53 H13        20.3125   36.6658   20.0389 H           1 MOL       0.0557
     54 H14        21.8304   38.5442   20.0478 H           1 MOL       0.0599
     55 H15        23.5776   38.7137   18.3709 H           1 MOL       0.0559
     56 H16        23.8270   36.9758   16.6926 H           1 MOL       0.0599
     57 H17        22.3233   35.0894   16.6677 H           1 MOL       0.0557
     58 H18        17.3102   33.6618   17.1598 H           1 MOL       0.0634
     59 H19        18.8867   32.5884   18.4656 H           1 MOL       0.2100
     60 H20        18.0489   33.9344   14.7445 H           1 MOL       0.0504
     61 H21        17.2704   32.4275   15.2218 H           1 MOL       0.0504
     62 H22        20.6772   32.4809   16.1173 H           1 MOL       0.0481
     63 H23        21.1067   33.0705   14.5310 H           1 MOL       0.0481
     64 H24        21.7455   30.8693   13.8259 H           1 MOL       0.0314
     65 H25        23.5579   30.3549   15.4168 H           1 MOL       0.0233
     66 H26        22.7490   31.2996   16.6788 H           1 MOL       0.0233
     67 H27        23.3689   32.0986   15.2215 H           1 MOL       0.0233
     68 H28        21.6735   28.8312   15.3602 H           1 MOL       0.0266
     69 H29        20.1793   29.2702   14.5823 H           1 MOL       0.0266
     70 H30        19.9462   28.5248   16.9688 H           1 MOL       0.0230
     71 H31        19.1934   30.0817   16.6296 H           1 MOL       0.0230
     72 H32        20.7565   30.0181   17.4869 H           1 MOL       0.0230
     73 H33        20.5710   30.2723   11.2323 H           1 MOL       0.0580
     74 H34        20.6297   27.9052   10.7509 H           1 MOL       0.0584
     75 H35        17.2323   29.6779   13.7840 H           1 MOL       0.0592
     76 H36        17.7295   24.4665   12.4816 H           1 MOL       0.1260
@<TRIPOS>BOND
     1     1     2   2
     2     2     3  am
     3     2     6   1
     4     3     4   1
     5     4     5   1
     6     4     7   1
     7     5     6   1
     8     7     8   1
     9     8     9   1
    10     9    10   2
    11     9    11  am
    12    11    12   1
    13    12    13   1
    14    12    20   1
    15    13    14   1
    16    14    15  ar
    17    14    19  ar
    18    15    16  ar
    19    16    17  ar
    20    17    18  ar
    21    18    19  ar
    22    20    21   1
    23    20    22   1
    24    22    23   1
    25    23    24   1
    26    23    29  am
    27    24    25   1
    28    25    26   1
    29    25    27   1
    30    27    28   1
    31    29    30   2
    32    29    31   2
    33    29    32   1
    34    32    33  ar
    35    32    35  ar
    36    33    34  ar
    37    34    40  ar
    38    35    36  ar
    39    36    37   1
    40    36    40  ar
    41    37    38   1
    42    38    39   2
    43    39    40   1
    44     3    41   1
    45     4    42   1
    46     5    43   1
    47     5    44   1
    48     6    45   1
    49     6    46   1
    50     7    47   1
    51     7    48   1
    52    11    49   1
    53    12    50   1
    54    13    51   1
    55    13    52   1
    56    15    53   1
    57    16    54   1
    58    17    55   1
    59    18    56   1
    60    19    57   1
    61    20    58   1
    62    21    59   1
    63    22    60   1
    64    22    61   1
    65    24    62   1
    66    24    63   1
    67    25    64   1
    68    26    65   1
    69    26    66   1
    70    26    67   1
    71    27    68   1
    72    27    69   1
    73    28    70   1
    74    28    71   1
    75    28    72   1
    76    33    73   1
    77    34    74   1
    78    35    75   1
    79    38    76   1
@<TRIPOS>SUBSTRUCTURE
     1  MOL      2

