@<TRIPOS>MOLECULE
4djr_ligand_017
    76    79
SMALL
GAST_HUCK
****
This file was generated by PARSER (from files_GN.cpp)

@<TRIPOS>ATOM
      1 O28        19.7715   31.4739   11.8662 O.2         1 MOL      -0.3971
      2 C27        20.6833   31.4502   12.6840 C.2         1 MOL       0.1764
      3 N29        20.8038   32.3239   13.6574 N.am        1 MOL      -0.2812
      4 C24        21.9757   32.1805   14.4494 C.3         1 MOL       0.0716
      5 C25        22.6623   30.9329   13.8142 C.3         1 MOL      -0.0105
      6 C26        21.7634   30.5096   12.6251 C.3         1 MOL       0.0394
      7 C22        22.8605   33.4662   14.4330 C.3         1 MOL       0.1003
      8 O23        22.7993   34.3478   15.5650 O.3         1 MOL      -0.2616
      9 C21        21.9319   34.5427   16.5935 C.2         1 MOL       0.3200
     10 O22        20.7506   33.8793   16.6722 O.2         1 MOL      -0.3775
     11 N20        22.3662   35.3847   17.5689 N.am        1 MOL      -0.2550
     12 C19        21.7762   35.6506   18.8650 C.3         1 MOL       0.0807
     13 C32        22.5051   36.8947   19.5155 C.3         1 MOL       0.0064
     14 C38        23.6855   36.7288   20.4192 C.ar        1 MOL      -0.0408
     15 C37        24.3476   35.4992   20.6874 C.ar        1 MOL      -0.0603
     16 C36        25.3799   35.4225   21.6497 C.ar        1 MOL      -0.0686
     17 C35        25.8049   36.5822   22.3257 C.ar        1 MOL      -0.0687
     18 C34        25.1837   37.8146   22.0535 C.ar        1 MOL      -0.0686
     19 C33        24.1475   37.8831   21.1024 C.ar        1 MOL      -0.0603
     20 C17        20.2171   35.8596   18.8521 C.3         1 MOL       0.0967
     21 O18        19.5549   34.6400   18.5120 O.3         1 MOL      -0.3877
     22 C16        19.7161   37.0019   17.9111 C.3         1 MOL       0.0579
     23 N11        18.4349   37.5784   18.2729 N.am        1 MOL      -0.2317
     24 C12        17.3235   36.7980   18.7836 C.3         1 MOL       0.0322
     25 C13        16.3130   36.2763   17.7016 C.3         1 MOL      -0.0270
     26 C14        16.5755   34.7835   17.3296 C.3         1 MOL      -0.0610
     27 C15        14.8429   36.5303   18.1896 C.3         1 MOL      -0.0518
     28 C18        13.7269   35.6952   17.4999 C.3         1 MOL      -0.0650
     29 S8         18.1507   39.1908   17.8156 S.o2        1 MOL       0.0679
     30 O10        17.8770   39.2886   16.2527 O.2         1 MOL      -0.1506
     31 O9         19.4508   40.0583   18.1260 O.2         1 MOL      -0.1506
     32 C5         16.9048   39.9906   18.7304 C.ar        1 MOL       0.1007
     33 C6         15.7411   40.4914   18.0931 C.ar        1 MOL      -0.0433
     34 C7         14.7034   41.0695   18.8477 C.ar        1 MOL      -0.0517
     35 C4         17.0369   40.0961   20.1353 C.ar        1 MOL      -0.0206
     36 C3         15.9843   40.6677   20.8669 C.ar        1 MOL       0.0595
     37 S1         15.7888   40.9220   22.5510 S.3         1 MOL       0.0026
     38 C1         14.2312   41.6366   22.3899 C.2         1 MOL       0.0809
     39 N1         13.8876   41.6685   21.0857 N.2         1 MOL      -0.2931
     40 C2         14.8269   41.1600   20.2463 C.ar        1 MOL       0.0375
     41 H1         20.1478   33.0188   13.8161 H           1 MOL       0.1855
     42 H2         21.6938   31.9428   15.4818 H           1 MOL       0.0584
     43 H3         22.7173   30.1114   14.5391 H           1 MOL       0.0313
     44 H4         23.6797   31.1396   13.4611 H           1 MOL       0.0313
     45 H5         22.2909   30.6049   11.6676 H           1 MOL       0.0503
     46 H6         21.3880   29.4838   12.7448 H           1 MOL       0.0503
     47 H7         22.6594   34.0425   13.5246 H           1 MOL       0.0634
     48 H8         23.9063   33.1524   14.3992 H           1 MOL       0.0634
     49 H9         23.2286   35.8182   17.4075 H           1 MOL       0.1873
     50 H10        21.9584   34.7888   19.5099 H           1 MOL       0.0604
     51 H11        21.7897   37.4533   20.1247 H           1 MOL       0.0449
     52 H12        22.8069   37.5795   18.7205 H           1 MOL       0.0449
     53 H13        24.0779   34.6345   20.2193 H           1 MOL       0.0557
     54 H14        25.8413   34.5243   21.8482 H           1 MOL       0.0599
     55 H15        26.5533   36.5280   23.0320 H           1 MOL       0.0559
     56 H16        25.4895   38.6622   22.5492 H           1 MOL       0.0599
     57 H17        23.7069   38.7923   20.9379 H           1 MOL       0.0557
     58 H18        19.8934   36.0866   19.8767 H           1 MOL       0.0634
     59 H19        19.9113   33.9363   19.1053 H           1 MOL       0.2100
     60 H20        19.6567   36.6302   16.8835 H           1 MOL       0.0504
     61 H21        20.4876   37.7772   17.9055 H           1 MOL       0.0504
     62 H22        16.7957   37.4096   19.5200 H           1 MOL       0.0481
     63 H23        17.6771   35.9479   19.3640 H           1 MOL       0.0481
     64 H24        16.4367   36.8715   16.7882 H           1 MOL       0.0314
     65 H25        15.9086   34.4717   16.5132 H           1 MOL       0.0233
     66 H26        16.4046   34.1360   18.1968 H           1 MOL       0.0233
     67 H27        17.6009   34.6541   16.9862 H           1 MOL       0.0233
     68 H28        14.5968   37.5876   18.0166 H           1 MOL       0.0266
     69 H29        14.7761   36.3490   19.2708 H           1 MOL       0.0266
     70 H30        12.7416   36.1245   17.7236 H           1 MOL       0.0230
     71 H31        13.7462   34.6637   17.8758 H           1 MOL       0.0230
     72 H32        13.8698   35.6879   16.4108 H           1 MOL       0.0230
     73 H33        15.6373   40.4057   17.0772 H           1 MOL       0.0580
     74 H34        13.8704   41.4235   18.3718 H           1 MOL       0.0584
     75 H35        17.8553   39.7300   20.6289 H           1 MOL       0.0592
     76 H36        13.6557   41.9756   23.1618 H           1 MOL       0.1260
@<TRIPOS>BOND
     1     1     2   2
     2     2     3  am
     3     2     6   1
     4     3     4   1
     5     4     5   1
     6     4     7   1
     7     5     6   1
     8     7     8   1
     9     8     9   1
    10     9    10   2
    11     9    11  am
    12    11    12   1
    13    12    13   1
    14    12    20   1
    15    13    14   1
    16    14    15  ar
    17    14    19  ar
    18    15    16  ar
    19    16    17  ar
    20    17    18  ar
    21    18    19  ar
    22    20    21   1
    23    20    22   1
    24    22    23   1
    25    23    24   1
    26    23    29  am
    27    24    25   1
    28    25    26   1
    29    25    27   1
    30    27    28   1
    31    29    30   2
    32    29    31   2
    33    29    32   1
    34    32    33  ar
    35    32    35  ar
    36    33    34  ar
    37    34    40  ar
    38    35    36  ar
    39    36    37   1
    40    36    40  ar
    41    37    38   1
    42    38    39   2
    43    39    40   1
    44     3    41   1
    45     4    42   1
    46     5    43   1
    47     5    44   1
    48     6    45   1
    49     6    46   1
    50     7    47   1
    51     7    48   1
    52    11    49   1
    53    12    50   1
    54    13    51   1
    55    13    52   1
    56    15    53   1
    57    16    54   1
    58    17    55   1
    59    18    56   1
    60    19    57   1
    61    20    58   1
    62    21    59   1
    63    22    60   1
    64    22    61   1
    65    24    62   1
    66    24    63   1
    67    25    64   1
    68    26    65   1
    69    26    66   1
    70    26    67   1
    71    27    68   1
    72    27    69   1
    73    28    70   1
    74    28    71   1
    75    28    72   1
    76    33    73   1
    77    34    74   1
    78    35    75   1
    79    38    76   1
@<TRIPOS>SUBSTRUCTURE
     1  MOL      2

