@<TRIPOS>MOLECULE
4djr_ligand_023
    76    79
SMALL
GAST_HUCK
****
This file was generated by PARSER (from files_GN.cpp)

@<TRIPOS>ATOM
      1 O28        23.0946   40.8653   21.0375 O.2         1 MOL      -0.3971
      2 C27        23.6205   40.8618   19.9328 C.2         1 MOL       0.1764
      3 N29        22.9627   40.5527   18.8437 N.am        1 MOL      -0.2812
      4 C24        23.7228   40.6100   17.6497 C.3         1 MOL       0.0716
      5 C25        25.1487   40.9612   18.1657 C.3         1 MOL      -0.0105
      6 C26        25.0013   41.1512   19.6960 C.3         1 MOL       0.0394
      7 C22        23.6109   39.3116   16.7874 C.3         1 MOL       0.1003
      8 O23        22.3628   38.6420   17.0244 O.3         1 MOL      -0.2616
      9 C21        22.1670   37.4076   17.5536 C.2         1 MOL       0.3200
     10 O22        23.2129   36.5883   17.8253 O.2         1 MOL      -0.3775
     11 N20        20.9072   37.0831   17.9051 N.am        1 MOL      -0.2550
     12 C19        20.5245   35.9447   18.6946 C.3         1 MOL       0.0807
     13 C32        20.7852   36.2728   20.1993 C.3         1 MOL       0.0064
     14 C38        22.2281   36.2963   20.5787 C.ar        1 MOL      -0.0408
     15 C37        22.9765   37.4993   20.5417 C.ar        1 MOL      -0.0603
     16 C36        24.3475   37.5175   20.8706 C.ar        1 MOL      -0.0686
     17 C35        24.9832   36.3185   21.2485 C.ar        1 MOL      -0.0687
     18 C34        24.2616   35.1079   21.2807 C.ar        1 MOL      -0.0686
     19 C33        22.8944   35.0995   20.9390 C.ar        1 MOL      -0.0603
     20 C17        19.0214   35.6038   18.4375 C.3         1 MOL       0.0967
     21 O18        18.6119   34.5078   19.2572 O.3         1 MOL      -0.3877
     22 C16        18.6620   35.3103   16.9492 C.3         1 MOL       0.0579
     23 N11        17.5162   34.4327   16.7910 N.am        1 MOL      -0.2317
     24 C12        17.7108   33.0261   16.4886 C.3         1 MOL       0.0322
     25 C13        17.2835   32.6209   15.0411 C.3         1 MOL      -0.0270
     26 C14        18.2161   33.2658   13.9790 C.3         1 MOL      -0.0610
     27 C15        17.2182   31.0733   14.8271 C.3         1 MOL      -0.0518
     28 C18        16.5357   30.2827   15.9683 C.3         1 MOL      -0.0650
     29 S8         15.9768   34.9562   17.2889 S.o2        1 MOL       0.0679
     30 O10        15.5389   34.1244   18.5741 O.2         1 MOL      -0.1506
     31 O9         14.8932   34.6818   16.1566 O.2         1 MOL      -0.1506
     32 C5         15.8280   36.6489   17.6851 C.ar        1 MOL       0.1007
     33 C6         15.9841   37.6199   16.6687 C.ar        1 MOL      -0.0433
     34 C7         15.8904   38.9949   16.9661 C.ar        1 MOL      -0.0517
     35 C4         15.5618   37.0588   19.0117 C.ar        1 MOL      -0.0206
     36 C3         15.4802   38.4295   19.2862 C.ar        1 MOL       0.0595
     37 S1         15.1994   39.2691   20.7544 S.3         1 MOL       0.0026
     38 C1         15.2949   40.8275   20.0327 C.2         1 MOL       0.0809
     39 N1         15.5350   40.6864   18.7113 N.2         1 MOL      -0.2931
     40 C2         15.6409   39.4001   18.2886 C.ar        1 MOL       0.0375
     41 H1         22.0136   40.3489   18.8516 H           1 MOL       0.1855
     42 H2         23.3257   41.4454   17.0646 H           1 MOL       0.0584
     43 H3         25.5141   41.8780   17.6940 H           1 MOL       0.0313
     44 H4         25.8723   40.1647   17.9657 H           1 MOL       0.0313
     45 H5         25.6235   40.4359   20.2523 H           1 MOL       0.0503
     46 H6         25.2264   42.1844   19.9938 H           1 MOL       0.0503
     47 H7         24.4468   38.6387   16.9883 H           1 MOL       0.0634
     48 H8         23.6536   39.5773   15.7276 H           1 MOL       0.0634
     49 H9         20.2283   37.7627   17.7551 H           1 MOL       0.1873
     50 H10        21.1172   35.0658   18.4213 H           1 MOL       0.0604
     51 H11        20.2849   35.5356   20.8376 H           1 MOL       0.0449
     52 H12        20.3293   37.2318   20.4442 H           1 MOL       0.0449
     53 H13        22.5234   38.3764   20.2802 H           1 MOL       0.0557
     54 H14        24.8867   38.3936   20.8127 H           1 MOL       0.0599
     55 H15        25.9782   36.3184   21.4943 H           1 MOL       0.0559
     56 H16        24.7329   34.2341   21.5443 H           1 MOL       0.0599
     57 H17        22.3821   34.2119   20.9513 H           1 MOL       0.0557
     58 H18        18.4298   36.4607   18.7696 H           1 MOL       0.0634
     59 H19        19.2292   33.7720   19.0750 H           1 MOL       0.2100
     60 H20        19.5365   34.8802   16.4493 H           1 MOL       0.0504
     61 H21        18.4704   36.2600   16.4416 H           1 MOL       0.0504
     62 H22        17.1399   32.4343   17.2053 H           1 MOL       0.0481
     63 H23        18.7572   32.7328   16.6341 H           1 MOL       0.0481
     64 H24        16.2768   33.0091   14.8637 H           1 MOL       0.0314
     65 H25        17.8831   33.0068   12.9722 H           1 MOL       0.0233
     66 H26        19.2457   32.9227   14.1070 H           1 MOL       0.0233
     67 H27        18.1970   34.3531   14.0614 H           1 MOL       0.0233
     68 H28        18.2274   30.6748   14.6793 H           1 MOL       0.0266
     69 H29        16.6494   30.8748   13.9132 H           1 MOL       0.0266
     70 H30        16.3134   29.2683   15.6364 H           1 MOL       0.0230
     71 H31        15.6032   30.7652   16.2618 H           1 MOL       0.0230
     72 H32        17.1919   30.2229   16.8378 H           1 MOL       0.0230
     73 H33        16.1759   37.3318   15.7087 H           1 MOL       0.0580
     74 H34        16.0070   39.6889   16.2295 H           1 MOL       0.0584
     75 H35        15.4442   36.3872   19.7713 H           1 MOL       0.0592
     76 H36        15.1919   41.7152   20.5266 H           1 MOL       0.1260
@<TRIPOS>BOND
     1     1     2   2
     2     2     3  am
     3     2     6   1
     4     3     4   1
     5     4     5   1
     6     4     7   1
     7     5     6   1
     8     7     8   1
     9     8     9   1
    10     9    10   2
    11     9    11  am
    12    11    12   1
    13    12    13   1
    14    12    20   1
    15    13    14   1
    16    14    15  ar
    17    14    19  ar
    18    15    16  ar
    19    16    17  ar
    20    17    18  ar
    21    18    19  ar
    22    20    21   1
    23    20    22   1
    24    22    23   1
    25    23    24   1
    26    23    29  am
    27    24    25   1
    28    25    26   1
    29    25    27   1
    30    27    28   1
    31    29    30   2
    32    29    31   2
    33    29    32   1
    34    32    33  ar
    35    32    35  ar
    36    33    34  ar
    37    34    40  ar
    38    35    36  ar
    39    36    37   1
    40    36    40  ar
    41    37    38   1
    42    38    39   2
    43    39    40   1
    44     3    41   1
    45     4    42   1
    46     5    43   1
    47     5    44   1
    48     6    45   1
    49     6    46   1
    50     7    47   1
    51     7    48   1
    52    11    49   1
    53    12    50   1
    54    13    51   1
    55    13    52   1
    56    15    53   1
    57    16    54   1
    58    17    55   1
    59    18    56   1
    60    19    57   1
    61    20    58   1
    62    21    59   1
    63    22    60   1
    64    22    61   1
    65    24    62   1
    66    24    63   1
    67    25    64   1
    68    26    65   1
    69    26    66   1
    70    26    67   1
    71    27    68   1
    72    27    69   1
    73    28    70   1
    74    28    71   1
    75    28    72   1
    76    33    73   1
    77    34    74   1
    78    35    75   1
    79    38    76   1
@<TRIPOS>SUBSTRUCTURE
     1  MOL      2

