@<TRIPOS>MOLECULE
4djr_ligand_042
    76    79
SMALL
GAST_HUCK
****
This file was generated by PARSER (from files_GN.cpp)

@<TRIPOS>ATOM
      1 O28        14.0577   41.3523   20.4547 O.2         1 MOL      -0.3971
      2 C27        14.7727   40.7740   19.6524 C.2         1 MOL       0.1764
      3 N29        14.4119   39.6793   19.0336 N.am        1 MOL      -0.2812
      4 C24        15.4032   39.1390   18.1802 C.3         1 MOL       0.0716
      5 C25        16.5087   40.2255   18.2113 C.3         1 MOL      -0.0105
      6 C26        16.1301   41.1443   19.3905 C.3         1 MOL       0.0394
      7 C22        15.8585   37.7317   18.6476 C.3         1 MOL       0.1003
      8 O23        16.7053   37.1514   17.6464 O.3         1 MOL      -0.2616
      9 C21        17.4604   36.0291   17.7485 C.2         1 MOL       0.3200
     10 O22        17.5010   35.3440   18.9127 O.2         1 MOL      -0.3775
     11 N20        18.2284   35.6973   16.6843 N.am        1 MOL      -0.2550
     12 C19        19.3131   34.7542   16.6757 C.3         1 MOL       0.0807
     13 C32        19.0929   33.6469   15.5928 C.3         1 MOL       0.0064
     14 C38        17.7661   32.9657   15.6501 C.ar        1 MOL      -0.0408
     15 C37        17.6312   31.6549   16.1674 C.ar        1 MOL      -0.0603
     16 C36        16.3737   31.0242   16.2063 C.ar        1 MOL      -0.0686
     17 C35        15.2300   31.6929   15.7330 C.ar        1 MOL      -0.0687
     18 C34        15.3506   32.9867   15.1987 C.ar        1 MOL      -0.0686
     19 C33        16.6104   33.6100   15.1429 C.ar        1 MOL      -0.0603
     20 C17        20.6661   35.5306   16.4476 C.3         1 MOL       0.0967
     21 O18        21.7341   34.7468   16.9847 O.3         1 MOL      -0.3877
     22 C16        20.6991   36.9590   17.0876 C.3         1 MOL       0.0579
     23 N11        21.9071   37.7407   16.9175 N.am        1 MOL      -0.2317
     24 C12        23.0744   37.4904   17.7445 C.3         1 MOL       0.0322
     25 C13        23.0766   38.0363   19.2265 C.3         1 MOL      -0.0270
     26 C14        22.0328   39.1530   19.5244 C.3         1 MOL      -0.0610
     27 C15        23.0810   36.9203   20.3314 C.3         1 MOL      -0.0518
     28 C18        21.8180   36.0320   20.4604 C.3         1 MOL      -0.0650
     29 S8         21.9130   38.9726   15.7387 S.o2        1 MOL       0.0679
     30 O10        21.6628   38.3011   14.3189 O.2         1 MOL      -0.1506
     31 O9         23.3515   39.6291   15.5629 O.2         1 MOL      -0.1506
     32 C5         20.7799   40.2844   15.9673 C.ar        1 MOL       0.1007
     33 C6         19.4679   40.1841   15.4417 C.ar        1 MOL      -0.0433
     34 C7         18.5136   41.1941   15.6758 C.ar        1 MOL      -0.0517
     35 C4         21.1402   41.4334   16.7081 C.ar        1 MOL      -0.0206
     36 C3         20.1596   42.3990   16.9798 C.ar        1 MOL       0.0595
     37 S1         20.2069   43.8123   17.9472 S.3         1 MOL       0.0026
     38 C1         18.5545   44.2076   17.6827 C.2         1 MOL       0.0809
     39 N1         18.0059   43.2781   16.8691 N.2         1 MOL      -0.2931
     40 C2         18.8518   42.2901   16.4865 C.ar        1 MOL       0.0375
     41 H1         13.5624   39.2396   19.1805 H           1 MOL       0.1855
     42 H2         14.9865   39.0575   17.1728 H           1 MOL       0.0584
     43 H3         16.4810   40.7975   17.2804 H           1 MOL       0.0313
     44 H4         17.5133   39.8118   18.3392 H           1 MOL       0.0313
     45 H5         16.7527   40.9487   20.2727 H           1 MOL       0.0503
     46 H6         16.2072   42.1974   19.1124 H           1 MOL       0.0503
     47 H7         14.9873   37.0877   18.7910 H           1 MOL       0.0634
     48 H8         16.3934   37.8164   19.6000 H           1 MOL       0.0634
     49 H9         18.1320   36.2341   15.8762 H           1 MOL       0.1873
     50 H10        19.3766   34.2529   17.6437 H           1 MOL       0.0604
     51 H11        19.8923   32.9089   15.7030 H           1 MOL       0.0449
     52 H12        19.2153   34.0792   14.5950 H           1 MOL       0.0449
     53 H13        18.4461   31.1518   16.5244 H           1 MOL       0.0557
     54 H14        16.2888   30.0760   16.5808 H           1 MOL       0.0599
     55 H15        14.3153   31.2376   15.7727 H           1 MOL       0.0559
     56 H16        14.5237   33.4731   14.8454 H           1 MOL       0.0599
     57 H17        16.6779   34.5432   14.7299 H           1 MOL       0.0557
     58 H18        20.8518   35.6359   15.3745 H           1 MOL       0.0634
     59 H19        22.4684   34.8241   16.3347 H           1 MOL       0.2100
     60 H20        20.4700   36.8576   18.1484 H           1 MOL       0.0504
     61 H21        19.8678   37.5383   16.6672 H           1 MOL       0.0504
     62 H22        23.9568   37.9103   17.2454 H           1 MOL       0.0481
     63 H23        23.2572   36.4172   17.7625 H           1 MOL       0.0481
     64 H24        24.0485   38.5442   19.3628 H           1 MOL       0.0314
     65 H25        22.1873   39.5611   20.5247 H           1 MOL       0.0233
     66 H26        21.0062   38.7790   19.4458 H           1 MOL       0.0233
     67 H27        22.1669   39.9719   18.8138 H           1 MOL       0.0233
     68 H28        23.2544   37.3915   21.3029 H           1 MOL       0.0266
     69 H29        23.9310   36.2600   20.1432 H           1 MOL       0.0266
     70 H30        21.9438   35.3447   21.3012 H           1 MOL       0.0230
     71 H31        21.6733   35.4343   19.5577 H           1 MOL       0.0230
     72 H32        20.9285   36.6415   20.6405 H           1 MOL       0.0230
     73 H33        19.1932   39.3629   14.8973 H           1 MOL       0.0580
     74 H34        17.5648   41.1047   15.2964 H           1 MOL       0.0584
     75 H35        22.0891   41.5591   17.0746 H           1 MOL       0.0592
     76 H36        18.0617   45.0101   18.0831 H           1 MOL       0.1260
@<TRIPOS>BOND
     1     1     2   2
     2     2     3  am
     3     2     6   1
     4     3     4   1
     5     4     5   1
     6     4     7   1
     7     5     6   1
     8     7     8   1
     9     8     9   1
    10     9    10   2
    11     9    11  am
    12    11    12   1
    13    12    13   1
    14    12    20   1
    15    13    14   1
    16    14    15  ar
    17    14    19  ar
    18    15    16  ar
    19    16    17  ar
    20    17    18  ar
    21    18    19  ar
    22    20    21   1
    23    20    22   1
    24    22    23   1
    25    23    24   1
    26    23    29  am
    27    24    25   1
    28    25    26   1
    29    25    27   1
    30    27    28   1
    31    29    30   2
    32    29    31   2
    33    29    32   1
    34    32    33  ar
    35    32    35  ar
    36    33    34  ar
    37    34    40  ar
    38    35    36  ar
    39    36    37   1
    40    36    40  ar
    41    37    38   1
    42    38    39   2
    43    39    40   1
    44     3    41   1
    45     4    42   1
    46     5    43   1
    47     5    44   1
    48     6    45   1
    49     6    46   1
    50     7    47   1
    51     7    48   1
    52    11    49   1
    53    12    50   1
    54    13    51   1
    55    13    52   1
    56    15    53   1
    57    16    54   1
    58    17    55   1
    59    18    56   1
    60    19    57   1
    61    20    58   1
    62    21    59   1
    63    22    60   1
    64    22    61   1
    65    24    62   1
    66    24    63   1
    67    25    64   1
    68    26    65   1
    69    26    66   1
    70    26    67   1
    71    27    68   1
    72    27    69   1
    73    28    70   1
    74    28    71   1
    75    28    72   1
    76    33    73   1
    77    34    74   1
    78    35    75   1
    79    38    76   1
@<TRIPOS>SUBSTRUCTURE
     1  MOL      2

