@<TRIPOS>MOLECULE
4djr_ligand_068
    76    79
SMALL
GAST_HUCK
****
This file was generated by PARSER (from files_GN.cpp)

@<TRIPOS>ATOM
      1 O28        18.3325   40.2336   19.4756 O.2         1 MOL      -0.3971
      2 C27        17.3377   39.7767   18.9295 C.2         1 MOL       0.1764
      3 N29        16.6481   38.7847   19.4314 N.am        1 MOL      -0.2812
      4 C24        15.5187   38.4106   18.6616 C.3         1 MOL       0.0716
      5 C25        15.5388   39.4190   17.4806 C.3         1 MOL      -0.0105
      6 C26        16.8220   40.2560   17.6847 C.3         1 MOL       0.0394
      7 C22        15.5920   36.9152   18.2570 C.3         1 MOL       0.1003
      8 O23        16.7830   36.6572   17.4992 O.3         1 MOL      -0.2616
      9 C21        17.8773   35.9377   17.8511 C.2         1 MOL       0.3200
     10 O22        17.9411   35.3398   19.0632 O.2         1 MOL      -0.3775
     11 N20        18.8988   35.8965   16.9717 N.am        1 MOL      -0.2550
     12 C19        20.2217   35.3894   17.2268 C.3         1 MOL       0.0807
     13 C32        20.3621   33.8663   16.8705 C.3         1 MOL       0.0064
     14 C38        19.4337   33.3635   15.8146 C.ar        1 MOL      -0.0408
     15 C37        19.7726   33.4201   14.4367 C.ar        1 MOL      -0.0603
     16 C36        18.8560   33.0050   13.4497 C.ar        1 MOL      -0.0686
     17 C35        17.5947   32.5032   13.8226 C.ar        1 MOL      -0.0687
     18 C34        17.2589   32.3963   15.1879 C.ar        1 MOL      -0.0686
     19 C33        18.1661   32.8347   16.1705 C.ar        1 MOL      -0.0603
     20 C17        21.2662   36.3347   16.5401 C.3         1 MOL       0.0967
     21 O18        21.5333   35.9205   15.1993 O.3         1 MOL      -0.3877
     22 C16        22.6089   36.5089   17.3283 C.3         1 MOL       0.0579
     23 N11        22.8208   37.8714   17.7896 N.am        1 MOL      -0.2317
     24 C12        23.7361   38.7697   17.1136 C.3         1 MOL       0.0322
     25 C13        23.0981   39.9181   16.2536 C.3         1 MOL      -0.0270
     26 C14        24.2431   40.7111   15.5534 C.3         1 MOL      -0.0610
     27 C15        22.0041   39.3800   15.2659 C.3         1 MOL      -0.0518
     28 C18        21.8425   40.1007   13.8987 C.3         1 MOL      -0.0650
     29 S8         21.9955   38.4019   19.1782 S.o2        1 MOL       0.0679
     30 O10        22.0021   37.2126   20.2377 O.2         1 MOL      -0.1506
     31 O9         20.4659   38.7017   18.8505 O.2         1 MOL      -0.1506
     32 C5         22.7183   39.7356   20.0418 C.ar        1 MOL       0.1007
     33 C6         22.0295   40.9671   20.1868 C.ar        1 MOL      -0.0433
     34 C7         22.6164   42.0430   20.8830 C.ar        1 MOL      -0.0517
     35 C4         24.0047   39.5833   20.6083 C.ar        1 MOL      -0.0206
     36 C3         24.5707   40.6650   21.2974 C.ar        1 MOL       0.0595
     37 S1         26.0856   40.8256   22.0893 S.3         1 MOL       0.0026
     38 C1         25.7935   42.4484   22.5801 C.2         1 MOL       0.0809
     39 N1         24.5729   42.8337   22.1429 N.2         1 MOL      -0.2931
     40 C2         23.8950   41.8865   21.4479 C.ar        1 MOL       0.0375
     41 H1         16.8977   38.3339   20.2542 H           1 MOL       0.1855
     42 H2         14.6235   38.5673   19.2702 H           1 MOL       0.0584
     43 H3         14.6558   40.0633   17.5216 H           1 MOL       0.0313
     44 H4         15.5562   38.9240   16.5055 H           1 MOL       0.0313
     45 H5         17.5471   40.0756   16.8839 H           1 MOL       0.0503
     46 H6         16.5959   41.3244   17.7443 H           1 MOL       0.0503
     47 H7         14.7289   36.6609   17.6355 H           1 MOL       0.0634
     48 H8         15.5493   36.2956   19.1570 H           1 MOL       0.0634
     49 H9         18.7431   36.3143   16.1094 H           1 MOL       0.1873
     50 H10        20.3879   35.4791   18.3065 H           1 MOL       0.0604
     51 H11        20.1858   33.2833   17.7794 H           1 MOL       0.0449
     52 H12        21.3957   33.6529   16.5792 H           1 MOL       0.0449
     53 H13        20.6822   33.7804   14.1423 H           1 MOL       0.0557
     54 H14        19.1028   33.0681   12.4558 H           1 MOL       0.0599
     55 H15        16.9331   32.1898   13.1067 H           1 MOL       0.0559
     56 H16        16.3434   32.0243   15.4619 H           1 MOL       0.0599
     57 H17        17.8915   32.7717   17.1553 H           1 MOL       0.0557
     58 H18        20.8086   37.3207   16.4344 H           1 MOL       0.0634
     59 H19        20.6848   36.0302   14.7226 H           1 MOL       0.2100
     60 H20        23.4346   36.1758   16.6907 H           1 MOL       0.0504
     61 H21        22.6410   35.8351   18.1908 H           1 MOL       0.0504
     62 H22        24.4181   38.2037   16.4664 H           1 MOL       0.0481
     63 H23        24.3728   39.2331   17.8737 H           1 MOL       0.0481
     64 H24        22.6166   40.6305   16.9323 H           1 MOL       0.0314
     65 H25        23.8535   41.6104   15.0668 H           1 MOL       0.0233
     66 H26        24.7365   40.0896   14.8037 H           1 MOL       0.0233
     67 H27        24.9963   41.0351   16.2772 H           1 MOL       0.0233
     68 H28        21.0381   39.4690   15.7741 H           1 MOL       0.0266
     69 H29        22.1796   38.3169   15.0612 H           1 MOL       0.0266
     70 H30        20.9681   39.6963   13.3793 H           1 MOL       0.0230
     71 H31        22.7137   39.9059   13.2728 H           1 MOL       0.0230
     72 H32        21.7177   41.1849   14.0204 H           1 MOL       0.0230
     73 H33        21.1008   41.0962   19.7761 H           1 MOL       0.0580
     74 H34        22.1154   42.9297   20.9850 H           1 MOL       0.0584
     75 H35        24.5218   38.7082   20.5183 H           1 MOL       0.0592
     76 H36        26.4416   43.0220   23.1206 H           1 MOL       0.1260
@<TRIPOS>BOND
     1     1     2   2
     2     2     3  am
     3     2     6   1
     4     3     4   1
     5     4     5   1
     6     4     7   1
     7     5     6   1
     8     7     8   1
     9     8     9   1
    10     9    10   2
    11     9    11  am
    12    11    12   1
    13    12    13   1
    14    12    20   1
    15    13    14   1
    16    14    15  ar
    17    14    19  ar
    18    15    16  ar
    19    16    17  ar
    20    17    18  ar
    21    18    19  ar
    22    20    21   1
    23    20    22   1
    24    22    23   1
    25    23    24   1
    26    23    29  am
    27    24    25   1
    28    25    26   1
    29    25    27   1
    30    27    28   1
    31    29    30   2
    32    29    31   2
    33    29    32   1
    34    32    33  ar
    35    32    35  ar
    36    33    34  ar
    37    34    40  ar
    38    35    36  ar
    39    36    37   1
    40    36    40  ar
    41    37    38   1
    42    38    39   2
    43    39    40   1
    44     3    41   1
    45     4    42   1
    46     5    43   1
    47     5    44   1
    48     6    45   1
    49     6    46   1
    50     7    47   1
    51     7    48   1
    52    11    49   1
    53    12    50   1
    54    13    51   1
    55    13    52   1
    56    15    53   1
    57    16    54   1
    58    17    55   1
    59    18    56   1
    60    19    57   1
    61    20    58   1
    62    21    59   1
    63    22    60   1
    64    22    61   1
    65    24    62   1
    66    24    63   1
    67    25    64   1
    68    26    65   1
    69    26    66   1
    70    26    67   1
    71    27    68   1
    72    27    69   1
    73    28    70   1
    74    28    71   1
    75    28    72   1
    76    33    73   1
    77    34    74   1
    78    35    75   1
    79    38    76   1
@<TRIPOS>SUBSTRUCTURE
     1  MOL      2

