@<TRIPOS>MOLECULE
4djr_ligand_015
    76    79
SMALL
GAST_HUCK
****
This file was generated by PARSER (from files_GN.cpp)

@<TRIPOS>ATOM
      1 O28        13.7372   42.0541   17.9073 O.2         1 MOL      -0.3971
      2 C27        14.6715   42.1992   17.1323 C.2         1 MOL       0.1764
      3 N29        15.3798   41.1970   16.6836 N.am        1 MOL      -0.2812
      4 C24        16.3770   41.5579   15.7458 C.3         1 MOL       0.0716
      5 C25        16.2927   43.1071   15.7200 C.3         1 MOL      -0.0105
      6 C26        15.0515   43.4586   16.5691 C.3         1 MOL       0.0394
      7 C22        17.7597   40.9944   16.1449 C.3         1 MOL       0.1003
      8 O23        17.7170   39.5652   16.1699 O.3         1 MOL      -0.2616
      9 C21        17.4825   38.7625   17.2426 C.2         1 MOL       0.3200
     10 O22        17.2044   39.2947   18.4607 O.2         1 MOL      -0.3775
     11 N20        17.4978   37.4255   17.0376 N.am        1 MOL      -0.2550
     12 C19        17.3047   36.4124   18.0457 C.3         1 MOL       0.0807
     13 C32        15.8049   35.9511   18.0273 C.3         1 MOL       0.0064
     14 C38        15.4908   34.8464   17.0749 C.ar        1 MOL      -0.0408
     15 C37        15.3108   33.5193   17.5368 C.ar        1 MOL      -0.0603
     16 C36        15.1691   32.4560   16.6279 C.ar        1 MOL      -0.0686
     17 C35        15.2050   32.7064   15.2448 C.ar        1 MOL      -0.0687
     18 C34        15.3435   34.0233   14.7724 C.ar        1 MOL      -0.0686
     19 C33        15.4661   35.0894   15.6801 C.ar        1 MOL      -0.0603
     20 C17        18.3491   35.2498   17.8886 C.3         1 MOL       0.0967
     21 O18        18.2452   34.3894   19.0333 O.3         1 MOL      -0.3877
     22 C16        19.8165   35.7714   17.7222 C.3         1 MOL       0.0579
     23 N11        20.7990   34.7812   17.3423 N.am        1 MOL      -0.2317
     24 C12        21.8173   34.2567   18.2475 C.3         1 MOL       0.0322
     25 C13        22.5284   35.1629   19.3210 C.3         1 MOL      -0.0270
     26 C14        23.0442   36.4970   18.7106 C.3         1 MOL      -0.0610
     27 C15        21.7964   35.4138   20.6868 C.3         1 MOL      -0.0518
     28 C18        20.9476   34.2196   21.1928 C.3         1 MOL      -0.0650
     29 S8         20.7122   34.0910   15.7889 S.o2        1 MOL       0.0679
     30 O10        21.7842   34.7857   14.8427 O.2         1 MOL      -0.1506
     31 O9         19.3091   34.3631   15.0868 O.2         1 MOL      -0.1506
     32 C5         20.7943   32.3503   15.7019 C.ar        1 MOL       0.1007
     33 C6         20.0679   31.5611   16.6244 C.ar        1 MOL      -0.0433
     34 C7         20.0711   30.1541   16.5342 C.ar        1 MOL      -0.0517
     35 C4         21.5145   31.7232   14.6597 C.ar        1 MOL      -0.0206
     36 C3         21.4873   30.3208   14.5748 C.ar        1 MOL       0.0595
     37 S1         22.2061   29.2496   13.4460 S.3         1 MOL       0.0026
     38 C1         21.5692   27.8326   14.1875 C.2         1 MOL       0.0809
     39 N1         20.8284   28.1940   15.2567 N.2         1 MOL      -0.2931
     40 C2         20.7752   29.5310   15.4913 C.ar        1 MOL       0.0375
     41 H1         15.2055   40.2762   16.9368 H           1 MOL       0.1855
     42 H2         16.0945   41.1501   14.7713 H           1 MOL       0.0584
     43 H3         16.1809   43.4759   14.6966 H           1 MOL       0.0313
     44 H4         17.1831   43.5681   16.1597 H           1 MOL       0.0313
     45 H5         15.2949   44.1759   17.3582 H           1 MOL       0.0503
     46 H6         14.2411   43.8523   15.9477 H           1 MOL       0.0503
     47 H7         18.0693   41.3979   17.1113 H           1 MOL       0.0634
     48 H8         18.5043   41.2882   15.4059 H           1 MOL       0.0634
     49 H9         17.7072   37.1193   16.1342 H           1 MOL       0.1873
     50 H10        17.4792   36.8492   19.0342 H           1 MOL       0.0604
     51 H11        15.1541   36.8004   17.7908 H           1 MOL       0.0449
     52 H12        15.5335   35.6496   19.0434 H           1 MOL       0.0449
     53 H13        15.3236   33.3108   18.5379 H           1 MOL       0.0557
     54 H14        15.0568   31.5019   16.9733 H           1 MOL       0.0599
     55 H15        15.1306   31.9293   14.5873 H           1 MOL       0.0559
     56 H16        15.3662   34.2106   13.7712 H           1 MOL       0.0599
     57 H17        15.5763   36.0383   15.3163 H           1 MOL       0.0557
     58 H18        18.0892   34.6611   17.0034 H           1 MOL       0.0634
     59 H19        18.8679   33.6528   18.8772 H           1 MOL       0.2100
     60 H20        20.0918   36.2594   18.6572 H           1 MOL       0.0504
     61 H21        19.8605   36.5525   16.9577 H           1 MOL       0.0504
     62 H22        22.6500   33.8667   17.6411 H           1 MOL       0.0481
     63 H23        21.4003   33.3794   18.7458 H           1 MOL       0.0481
     64 H24        23.4386   34.6164   19.6124 H           1 MOL       0.0314
     65 H25        23.7009   37.0066   19.4239 H           1 MOL       0.0233
     66 H26        22.2143   37.1648   18.4696 H           1 MOL       0.0233
     67 H27        23.6134   36.3016   17.7956 H           1 MOL       0.0233
     68 H28        21.1643   36.3052   20.6583 H           1 MOL       0.0266
     69 H29        22.5640   35.6112   21.4505 H           1 MOL       0.0266
     70 H30        20.6695   34.3678   22.2427 H           1 MOL       0.0230
     71 H31        21.5155   33.2889   21.1136 H           1 MOL       0.0230
     72 H32        20.0310   34.1392   20.6050 H           1 MOL       0.0230
     73 H33        19.5166   32.0045   17.3573 H           1 MOL       0.0580
     74 H34        19.5533   29.5958   17.2135 H           1 MOL       0.0584
     75 H35        22.0287   32.2630   13.9607 H           1 MOL       0.0592
     76 H36        21.7127   26.8767   13.8642 H           1 MOL       0.1260
@<TRIPOS>BOND
     1     1     2   2
     2     2     3  am
     3     2     6   1
     4     3     4   1
     5     4     5   1
     6     4     7   1
     7     5     6   1
     8     7     8   1
     9     8     9   1
    10     9    10   2
    11     9    11  am
    12    11    12   1
    13    12    13   1
    14    12    20   1
    15    13    14   1
    16    14    15  ar
    17    14    19  ar
    18    15    16  ar
    19    16    17  ar
    20    17    18  ar
    21    18    19  ar
    22    20    21   1
    23    20    22   1
    24    22    23   1
    25    23    24   1
    26    23    29  am
    27    24    25   1
    28    25    26   1
    29    25    27   1
    30    27    28   1
    31    29    30   2
    32    29    31   2
    33    29    32   1
    34    32    33  ar
    35    32    35  ar
    36    33    34  ar
    37    34    40  ar
    38    35    36  ar
    39    36    37   1
    40    36    40  ar
    41    37    38   1
    42    38    39   2
    43    39    40   1
    44     3    41   1
    45     4    42   1
    46     5    43   1
    47     5    44   1
    48     6    45   1
    49     6    46   1
    50     7    47   1
    51     7    48   1
    52    11    49   1
    53    12    50   1
    54    13    51   1
    55    13    52   1
    56    15    53   1
    57    16    54   1
    58    17    55   1
    59    18    56   1
    60    19    57   1
    61    20    58   1
    62    21    59   1
    63    22    60   1
    64    22    61   1
    65    24    62   1
    66    24    63   1
    67    25    64   1
    68    26    65   1
    69    26    66   1
    70    26    67   1
    71    27    68   1
    72    27    69   1
    73    28    70   1
    74    28    71   1
    75    28    72   1
    76    33    73   1
    77    34    74   1
    78    35    75   1
    79    38    76   1
@<TRIPOS>SUBSTRUCTURE
     1  MOL      2

