@<TRIPOS>MOLECULE
4djr_ligand_058
    76    79
SMALL
GAST_HUCK
****
This file was generated by PARSER (from files_GN.cpp)

@<TRIPOS>ATOM
      1 O28        13.9995   41.1186   19.6671 O.2         1 MOL      -0.3971
      2 C27        14.7994   40.5689   18.9269 C.2         1 MOL       0.1764
      3 N29        14.6852   39.3125   18.5761 N.am        1 MOL      -0.2812
      4 C24        15.7467   38.8331   17.7704 C.3         1 MOL       0.0716
      5 C25        16.5421   40.1275   17.4457 C.3         1 MOL      -0.0105
      6 C26        15.9675   41.2043   18.3940 C.3         1 MOL       0.0394
      7 C22        16.5297   37.7210   18.5115 C.3         1 MOL       0.1003
      8 O23        17.6187   37.2831   17.6865 O.3         1 MOL      -0.2616
      9 C21        18.4803   36.2751   17.9767 C.2         1 MOL       0.3200
     10 O22        18.3436   35.5492   19.1219 O.2         1 MOL      -0.3775
     11 N20        19.4177   36.0077   17.0376 N.am        1 MOL      -0.2550
     12 C19        20.4151   34.9754   17.0139 C.3         1 MOL       0.0807
     13 C32        21.1696   34.7027   18.3585 C.3         1 MOL       0.0064
     14 C38        21.9452   35.8278   18.9808 C.ar        1 MOL      -0.0408
     15 C37        22.4204   35.6525   20.3037 C.ar        1 MOL      -0.0603
     16 C36        23.1428   36.6639   20.9602 C.ar        1 MOL      -0.0686
     17 C35        23.4148   37.8728   20.3020 C.ar        1 MOL      -0.0687
     18 C34        22.9711   38.0665   18.9822 C.ar        1 MOL      -0.0686
     19 C33        22.2436   37.0521   18.3263 C.ar        1 MOL      -0.0603
     20 C17        19.8412   33.6969   16.3005 C.3         1 MOL       0.0967
     21 O18        19.4065   34.0610   14.9811 O.3         1 MOL      -0.3877
     22 C16        18.7003   32.9196   17.0539 C.3         1 MOL       0.0579
     23 N11        17.4823   32.6485   16.3106 N.am        1 MOL      -0.2317
     24 C12        16.1763   32.9987   16.8450 C.3         1 MOL       0.0322
     25 C13        15.7149   34.4871   16.7105 C.3         1 MOL      -0.0270
     26 C14        16.1295   35.1292   15.3548 C.3         1 MOL      -0.0610
     27 C15        14.1651   34.5838   16.9155 C.3         1 MOL      -0.0518
     28 C18        13.6898   35.8924   17.5825 C.3         1 MOL      -0.0650
     29 S8         17.5055   31.5558   15.0096 S.o2        1 MOL       0.0679
     30 O10        17.0204   32.3261   13.7039 O.2         1 MOL      -0.1506
     31 O9         16.3826   30.4568   15.2652 O.2         1 MOL      -0.1506
     32 C5         18.9617   30.6799   14.6240 C.ar        1 MOL       0.1007
     33 C6         19.4632   29.7170   15.5338 C.ar        1 MOL      -0.0433
     34 C7         20.5789   28.9230   15.2001 C.ar        1 MOL      -0.0517
     35 C4         19.5993   30.8652   13.3774 C.ar        1 MOL      -0.0206
     36 C3         20.7099   30.0674   13.0676 C.ar        1 MOL       0.0595
     37 S1         21.6914   30.0090   11.6628 S.3         1 MOL       0.0026
     38 C1         22.6861   28.7393   12.2601 C.2         1 MOL       0.0809
     39 N1         22.2690   28.3907   13.4973 N.2         1 MOL      -0.2931
     40 C2         21.2027   29.0974   13.9530 C.ar        1 MOL       0.0375
     41 H1         13.9565   38.7440   18.8827 H           1 MOL       0.1855
     42 H2         15.3201   38.4131   16.8506 H           1 MOL       0.0584
     43 H3         16.3546   40.4243   16.4072 H           1 MOL       0.0313
     44 H4         17.6213   40.0095   17.5829 H           1 MOL       0.0313
     45 H5         16.6640   41.4472   19.2004 H           1 MOL       0.0503
     46 H6         15.7003   42.1130   17.8477 H           1 MOL       0.0503
     47 H7         15.8510   36.8803   18.6952 H           1 MOL       0.0634
     48 H8         16.9139   38.0806   19.4723 H           1 MOL       0.0634
     49 H9         19.4006   36.5829   16.2535 H           1 MOL       0.1873
     50 H10        21.1825   35.3504   16.3338 H           1 MOL       0.0604
     51 H11        21.8787   33.8785   18.1884 H           1 MOL       0.0449
     52 H12        20.4289   34.3484   19.0893 H           1 MOL       0.0449
     53 H13        22.2334   34.7801   20.8049 H           1 MOL       0.0557
     54 H14        23.4695   36.5221   21.9148 H           1 MOL       0.0599
     55 H15        23.9370   38.6099   20.7788 H           1 MOL       0.0559
     56 H16        23.1764   38.9429   18.4977 H           1 MOL       0.0599
     57 H17        21.9451   37.2205   17.3668 H           1 MOL       0.0557
     58 H18        20.6789   33.0038   16.1490 H           1 MOL       0.0634
     59 H19        19.4861   35.0386   14.9135 H           1 MOL       0.2100
     60 H20        18.4484   33.4708   17.9614 H           1 MOL       0.0504
     61 H21        19.1048   31.9630   17.4028 H           1 MOL       0.0504
     62 H22        16.1577   32.7358   17.9067 H           1 MOL       0.0481
     63 H23        15.3986   32.3908   16.3770 H           1 MOL       0.0481
     64 H24        16.2003   35.0546   17.5139 H           1 MOL       0.0314
     65 H25        15.7448   36.1450   15.2625 H           1 MOL       0.0233
     66 H26        15.7478   34.5355   14.5214 H           1 MOL       0.0233
     67 H27        17.2106   35.1930   15.2790 H           1 MOL       0.0233
     68 H28        13.8154   33.7558   17.5415 H           1 MOL       0.0266
     69 H29        13.6662   34.4861   15.9468 H           1 MOL       0.0266
     70 H30        12.6030   35.8861   17.6610 H           1 MOL       0.0230
     71 H31        13.9848   36.7643   16.9972 H           1 MOL       0.0230
     72 H32        14.1160   35.9700   18.5856 H           1 MOL       0.0230
     73 H33        19.0084   29.5761   16.4390 H           1 MOL       0.0580
     74 H34        20.9227   28.2180   15.8568 H           1 MOL       0.0584
     75 H35        19.2599   31.5472   12.6945 H           1 MOL       0.0592
     76 H36        23.4653   28.3119   11.7581 H           1 MOL       0.1260
@<TRIPOS>BOND
     1     1     2   2
     2     2     3  am
     3     2     6   1
     4     3     4   1
     5     4     5   1
     6     4     7   1
     7     5     6   1
     8     7     8   1
     9     8     9   1
    10     9    10   2
    11     9    11  am
    12    11    12   1
    13    12    13   1
    14    12    20   1
    15    13    14   1
    16    14    15  ar
    17    14    19  ar
    18    15    16  ar
    19    16    17  ar
    20    17    18  ar
    21    18    19  ar
    22    20    21   1
    23    20    22   1
    24    22    23   1
    25    23    24   1
    26    23    29  am
    27    24    25   1
    28    25    26   1
    29    25    27   1
    30    27    28   1
    31    29    30   2
    32    29    31   2
    33    29    32   1
    34    32    33  ar
    35    32    35  ar
    36    33    34  ar
    37    34    40  ar
    38    35    36  ar
    39    36    37   1
    40    36    40  ar
    41    37    38   1
    42    38    39   2
    43    39    40   1
    44     3    41   1
    45     4    42   1
    46     5    43   1
    47     5    44   1
    48     6    45   1
    49     6    46   1
    50     7    47   1
    51     7    48   1
    52    11    49   1
    53    12    50   1
    54    13    51   1
    55    13    52   1
    56    15    53   1
    57    16    54   1
    58    17    55   1
    59    18    56   1
    60    19    57   1
    61    20    58   1
    62    21    59   1
    63    22    60   1
    64    22    61   1
    65    24    62   1
    66    24    63   1
    67    25    64   1
    68    26    65   1
    69    26    66   1
    70    26    67   1
    71    27    68   1
    72    27    69   1
    73    28    70   1
    74    28    71   1
    75    28    72   1
    76    33    73   1
    77    34    74   1
    78    35    75   1
    79    38    76   1
@<TRIPOS>SUBSTRUCTURE
     1  MOL      2

