@<TRIPOS>MOLECULE
4djr_ligand_085
    76    79
SMALL
GAST_HUCK
****
This file was generated by PARSER (from files_GN.cpp)

@<TRIPOS>ATOM
      1 O28        14.0956   41.5715   20.3067 O.2         1 MOL      -0.3971
      2 C27        14.7812   40.8936   19.5572 C.2         1 MOL       0.1764
      3 N29        14.3698   39.7687   19.0323 N.am        1 MOL      -0.2812
      4 C24        15.3314   39.1180   18.2245 C.3         1 MOL       0.0716
      5 C25        16.5924   40.0095   18.3808 C.3         1 MOL      -0.0105
      6 C26        16.1197   41.2396   19.1818 C.3         1 MOL       0.0394
      7 C22        15.5090   37.6470   18.6696 C.3         1 MOL       0.1003
      8 O23        16.7624   37.1276   18.2125 O.3         1 MOL      -0.2616
      9 C21        17.1966   35.8540   18.3611 C.2         1 MOL       0.3200
     10 O22        16.3850   34.9111   18.9056 O.2         1 MOL      -0.3775
     11 N20        18.4262   35.5659   17.8834 N.am        1 MOL      -0.2550
     12 C19        19.0668   34.2808   17.8549 C.3         1 MOL       0.0807
     13 C32        18.9921   33.6972   16.4137 C.3         1 MOL       0.0064
     14 C38        17.6845   33.0495   16.1211 C.ar        1 MOL      -0.0408
     15 C37        16.6528   33.7602   15.4610 C.ar        1 MOL      -0.0603
     16 C36        15.4186   33.1392   15.1905 C.ar        1 MOL      -0.0686
     17 C35        15.2037   31.8025   15.5710 C.ar        1 MOL      -0.0687
     18 C34        16.2168   31.0891   16.2353 C.ar        1 MOL      -0.0686
     19 C33        17.4476   31.7122   16.5158 C.ar        1 MOL      -0.0603
     20 C17        20.5282   34.3557   18.4194 C.3         1 MOL       0.0967
     21 O18        20.4321   34.5408   19.8348 O.3         1 MOL      -0.3877
     22 C16        21.4702   35.4771   17.8902 C.3         1 MOL       0.0579
     23 N11        21.9868   35.3529   16.5448 N.am        1 MOL      -0.2317
     24 C12        21.7076   36.3617   15.5389 C.3         1 MOL       0.0322
     25 C13        22.0144   37.8775   15.8442 C.3         1 MOL      -0.0270
     26 C14        20.7478   38.6584   16.3123 C.3         1 MOL      -0.0610
     27 C15        23.2420   38.1074   16.7874 C.3         1 MOL      -0.0518
     28 C18        23.9426   39.4791   16.6312 C.3         1 MOL      -0.0650
     29 S8         23.0223   34.0572   16.1544 S.o2        1 MOL       0.0679
     30 O10        23.6153   33.4333   17.4955 O.2         1 MOL      -0.1506
     31 O9         24.3378   34.6316   15.4701 O.2         1 MOL      -0.1506
     32 C5         22.4144   32.7599   15.1548 C.ar        1 MOL       0.1007
     33 C6         22.8527   31.4268   15.3544 C.ar        1 MOL      -0.0433
     34 C7         22.3177   30.3644   14.5958 C.ar        1 MOL      -0.0517
     35 C4         21.4539   33.0269   14.1487 C.ar        1 MOL      -0.0206
     36 C3         20.9204   31.9552   13.4182 C.ar        1 MOL       0.0595
     37 S1         19.7159   31.9204   12.2003 S.3         1 MOL       0.0026
     38 C1         19.7860   30.2106   12.0089 C.2         1 MOL       0.0809
     39 N1         20.7051   29.7025   12.8585 N.2         1 MOL      -0.2931
     40 C2         21.3312   30.6284   13.6303 C.ar        1 MOL       0.0375
     41 H1         13.4977   39.3786   19.2111 H           1 MOL       0.1855
     42 H2         14.9886   39.1405   17.1867 H           1 MOL       0.0584
     43 H3         16.9853   40.3032   17.4032 H           1 MOL       0.0313
     44 H4         17.3842   39.4939   18.9324 H           1 MOL       0.0313
     45 H5         16.7435   41.3938   20.0662 H           1 MOL       0.0503
     46 H6         16.1186   42.1434   18.5663 H           1 MOL       0.0503
     47 H7         14.6934   37.0487   18.2574 H           1 MOL       0.0634
     48 H8         15.4750   37.5759   19.7600 H           1 MOL       0.0634
     49 H9         18.9151   36.3038   17.4803 H           1 MOL       0.1873
     50 H10        18.5311   33.5794   18.5056 H           1 MOL       0.0604
     51 H11        19.7795   32.9503   16.2865 H           1 MOL       0.0449
     52 H12        19.1790   34.4841   15.6804 H           1 MOL       0.0449
     53 H13        16.7932   34.7324   15.1786 H           1 MOL       0.0557
     54 H14        14.6767   33.6630   14.7215 H           1 MOL       0.0599
     55 H15        14.3050   31.3526   15.3786 H           1 MOL       0.0559
     56 H16        16.0596   30.1230   16.5246 H           1 MOL       0.0599
     57 H17        18.1669   31.1829   17.0153 H           1 MOL       0.0557
     58 H18        21.0171   33.3876   18.2739 H           1 MOL       0.0634
     59 H19        20.2089   33.6526   20.1840 H           1 MOL       0.2100
     60 H20        22.3313   35.5304   18.5623 H           1 MOL       0.0504
     61 H21        20.9372   36.4181   18.0168 H           1 MOL       0.0504
     62 H22        20.6569   36.2488   15.2706 H           1 MOL       0.0481
     63 H23        22.2564   36.1182   14.6255 H           1 MOL       0.0481
     64 H24        22.2758   38.3309   14.8806 H           1 MOL       0.0314
     65 H25        20.9379   39.7329   16.3027 H           1 MOL       0.0233
     66 H26        20.4559   38.3745   17.3219 H           1 MOL       0.0233
     67 H27        19.9080   38.4647   15.6388 H           1 MOL       0.0233
     68 H28        23.9976   37.3398   16.6029 H           1 MOL       0.0266
     69 H29        22.9263   38.0085   17.8274 H           1 MOL       0.0266
     70 H30        24.7993   39.5324   17.3043 H           1 MOL       0.0230
     71 H31        23.2632   40.2937   16.8788 H           1 MOL       0.0230
     72 H32        24.3008   39.6149   15.6102 H           1 MOL       0.0230
     73 H33        23.5591   31.2141   16.0635 H           1 MOL       0.0580
     74 H34        22.6344   29.4057   14.7587 H           1 MOL       0.0584
     75 H35        21.1309   33.9741   13.9579 H           1 MOL       0.0592
     76 H36        19.2162   29.6710   11.3578 H           1 MOL       0.1260
@<TRIPOS>BOND
     1     1     2   2
     2     2     3  am
     3     2     6   1
     4     3     4   1
     5     4     5   1
     6     4     7   1
     7     5     6   1
     8     7     8   1
     9     8     9   1
    10     9    10   2
    11     9    11  am
    12    11    12   1
    13    12    13   1
    14    12    20   1
    15    13    14   1
    16    14    15  ar
    17    14    19  ar
    18    15    16  ar
    19    16    17  ar
    20    17    18  ar
    21    18    19  ar
    22    20    21   1
    23    20    22   1
    24    22    23   1
    25    23    24   1
    26    23    29  am
    27    24    25   1
    28    25    26   1
    29    25    27   1
    30    27    28   1
    31    29    30   2
    32    29    31   2
    33    29    32   1
    34    32    33  ar
    35    32    35  ar
    36    33    34  ar
    37    34    40  ar
    38    35    36  ar
    39    36    37   1
    40    36    40  ar
    41    37    38   1
    42    38    39   2
    43    39    40   1
    44     3    41   1
    45     4    42   1
    46     5    43   1
    47     5    44   1
    48     6    45   1
    49     6    46   1
    50     7    47   1
    51     7    48   1
    52    11    49   1
    53    12    50   1
    54    13    51   1
    55    13    52   1
    56    15    53   1
    57    16    54   1
    58    17    55   1
    59    18    56   1
    60    19    57   1
    61    20    58   1
    62    21    59   1
    63    22    60   1
    64    22    61   1
    65    24    62   1
    66    24    63   1
    67    25    64   1
    68    26    65   1
    69    26    66   1
    70    26    67   1
    71    27    68   1
    72    27    69   1
    73    28    70   1
    74    28    71   1
    75    28    72   1
    76    33    73   1
    77    34    74   1
    78    35    75   1
    79    38    76   1
@<TRIPOS>SUBSTRUCTURE
     1  MOL      2

