@<TRIPOS>MOLECULE
4djr_ligand_093
    76    79
SMALL
GAST_HUCK
****
This file was generated by PARSER (from files_GN.cpp)

@<TRIPOS>ATOM
      1 O28        11.9818   35.0851   16.9651 O.2         1 MOL      -0.3971
      2 C27        13.1701   35.2674   17.1693 C.2         1 MOL       0.1764
      3 N29        13.6250   36.3303   17.7824 N.am        1 MOL      -0.2812
      4 C24        14.9988   36.2559   18.0921 C.3         1 MOL       0.0716
      5 C25        15.4757   35.0527   17.2374 C.3         1 MOL      -0.0105
      6 C26        14.1825   34.2777   16.9316 C.3         1 MOL       0.0394
      7 C22        15.7326   37.6006   17.8329 C.3         1 MOL       0.1003
      8 O23        17.1408   37.4643   17.6212 O.3         1 MOL      -0.2616
      9 C21        18.0192   36.6474   18.2573 C.2         1 MOL       0.3200
     10 O22        17.6067   35.7570   19.1957 O.2         1 MOL      -0.3775
     11 N20        19.3110   36.7448   17.8734 N.am        1 MOL      -0.2550
     12 C19        20.4013   35.9238   18.3159 C.3         1 MOL       0.0807
     13 C32        20.5881   35.9971   19.8755 C.3         1 MOL       0.0064
     14 C38        22.0018   36.1251   20.3302 C.ar        1 MOL      -0.0408
     15 C37        22.6799   37.3603   20.1848 C.ar        1 MOL      -0.0603
     16 C36        24.0170   37.5017   20.6015 C.ar        1 MOL      -0.0686
     17 C35        24.6982   36.4084   21.1627 C.ar        1 MOL      -0.0687
     18 C34        24.0322   35.1813   21.3326 C.ar        1 MOL      -0.0686
     19 C33        22.6906   35.0445   20.9304 C.ar        1 MOL      -0.0603
     20 C17        20.2707   34.4775   17.7219 C.3         1 MOL       0.0967
     21 O18        21.4377   33.7367   18.0698 O.3         1 MOL      -0.3877
     22 C16        20.0804   34.4591   16.1693 C.3         1 MOL       0.0579
     23 N11        20.1556   33.1605   15.5120 N.am        1 MOL      -0.2317
     24 C12        21.1237   32.1483   15.8968 C.3         1 MOL       0.0322
     25 C13        22.6096   32.2930   15.4188 C.3         1 MOL      -0.0270
     26 C14        22.7262   32.9263   14.0014 C.3         1 MOL      -0.0610
     27 C15        23.5893   32.9713   16.4312 C.3         1 MOL      -0.0518
     28 C18        23.6460   32.2826   17.8171 C.3         1 MOL      -0.0650
     29 S8         19.2319   32.8751   14.1124 S.o2        1 MOL       0.0679
     30 O10        20.1212   33.0866   12.8099 O.2         1 MOL      -0.1506
     31 O9         18.0147   33.8936   14.0006 O.2         1 MOL      -0.1506
     32 C5         18.4718   31.3085   14.0695 C.ar        1 MOL       0.1007
     33 C6         17.5733   30.9267   15.0937 C.ar        1 MOL      -0.0433
     34 C7         16.9634   29.6550   15.0783 C.ar        1 MOL      -0.0517
     35 C4         18.7823   30.3957   13.0335 C.ar        1 MOL      -0.0206
     36 C3         18.1707   29.1309   13.0419 C.ar        1 MOL       0.0595
     37 S1         18.3067   27.8043   11.9597 S.3         1 MOL       0.0026
     38 C1         17.1989   26.8190   12.8289 C.2         1 MOL       0.0809
     39 N1         16.7496   27.4990   13.9052 N.2         1 MOL      -0.2931
     40 C2         17.2654   28.7498   14.0446 C.ar        1 MOL       0.0375
     41 H1         13.0537   37.0302   18.1317 H           1 MOL       0.1855
     42 H2         15.0755   36.0079   19.1559 H           1 MOL       0.0584
     43 H3         16.1992   34.4266   17.7734 H           1 MOL       0.0313
     44 H4         15.9249   35.3958   16.2975 H           1 MOL       0.0313
     45 H5         14.1740   33.9204   15.8993 H           1 MOL       0.0503
     46 H6         14.0570   33.4396   17.6225 H           1 MOL       0.0503
     47 H7         15.5656   38.2711   18.6821 H           1 MOL       0.0634
     48 H8         15.3215   38.0801   16.9397 H           1 MOL       0.0634
     49 H9         19.5167   37.4259   17.2085 H           1 MOL       0.1873
     50 H10        21.2883   36.3710   17.8542 H           1 MOL       0.0604
     51 H11        20.1184   35.1192   20.3321 H           1 MOL       0.0449
     52 H12        20.0482   36.8609   20.2722 H           1 MOL       0.0449
     53 H13        22.2019   38.1683   19.7773 H           1 MOL       0.0557
     54 H14        24.4953   38.3987   20.4874 H           1 MOL       0.0599
     55 H15        25.6737   36.5059   21.4497 H           1 MOL       0.0559
     56 H16        24.5250   34.3911   21.7495 H           1 MOL       0.0599
     57 H17        22.2225   34.1469   21.0693 H           1 MOL       0.0557
     58 H18        19.4099   33.9740   18.1670 H           1 MOL       0.0634
     59 H19        21.1585   33.1853   18.8255 H           1 MOL       0.2100
     60 H20        20.8038   35.1309   15.7078 H           1 MOL       0.0504
     61 H21        19.1101   34.9151   15.9623 H           1 MOL       0.0504
     62 H22        20.8016   31.1683   15.5372 H           1 MOL       0.0481
     63 H23        21.0866   32.0361   16.9769 H           1 MOL       0.0481
     64 H24        22.9965   31.2737   15.2961 H           1 MOL       0.0314
     65 H25        23.7632   32.9256   13.6587 H           1 MOL       0.0233
     66 H26        22.3712   33.9575   13.9996 H           1 MOL       0.0233
     67 H27        22.1396   32.3507   13.2835 H           1 MOL       0.0233
     68 H28        23.3417   34.0229   16.5656 H           1 MOL       0.0266
     69 H29        24.6017   32.9396   16.0195 H           1 MOL       0.0266
     70 H30        24.4344   32.7270   18.4243 H           1 MOL       0.0230
     71 H31        23.8543   31.2180   17.7060 H           1 MOL       0.0230
     72 H32        22.7003   32.3949   18.3414 H           1 MOL       0.0230
     73 H33        17.3579   31.5673   15.8560 H           1 MOL       0.0580
     74 H34        16.3045   29.3914   15.8137 H           1 MOL       0.0584
     75 H35        19.4421   30.6302   12.2868 H           1 MOL       0.0592
     76 H36        16.9175   25.8770   12.5668 H           1 MOL       0.1260
@<TRIPOS>BOND
     1     1     2   2
     2     2     3  am
     3     2     6   1
     4     3     4   1
     5     4     5   1
     6     4     7   1
     7     5     6   1
     8     7     8   1
     9     8     9   1
    10     9    10   2
    11     9    11  am
    12    11    12   1
    13    12    13   1
    14    12    20   1
    15    13    14   1
    16    14    15  ar
    17    14    19  ar
    18    15    16  ar
    19    16    17  ar
    20    17    18  ar
    21    18    19  ar
    22    20    21   1
    23    20    22   1
    24    22    23   1
    25    23    24   1
    26    23    29  am
    27    24    25   1
    28    25    26   1
    29    25    27   1
    30    27    28   1
    31    29    30   2
    32    29    31   2
    33    29    32   1
    34    32    33  ar
    35    32    35  ar
    36    33    34  ar
    37    34    40  ar
    38    35    36  ar
    39    36    37   1
    40    36    40  ar
    41    37    38   1
    42    38    39   2
    43    39    40   1
    44     3    41   1
    45     4    42   1
    46     5    43   1
    47     5    44   1
    48     6    45   1
    49     6    46   1
    50     7    47   1
    51     7    48   1
    52    11    49   1
    53    12    50   1
    54    13    51   1
    55    13    52   1
    56    15    53   1
    57    16    54   1
    58    17    55   1
    59    18    56   1
    60    19    57   1
    61    20    58   1
    62    21    59   1
    63    22    60   1
    64    22    61   1
    65    24    62   1
    66    24    63   1
    67    25    64   1
    68    26    65   1
    69    26    66   1
    70    26    67   1
    71    27    68   1
    72    27    69   1
    73    28    70   1
    74    28    71   1
    75    28    72   1
    76    33    73   1
    77    34    74   1
    78    35    75   1
    79    38    76   1
@<TRIPOS>SUBSTRUCTURE
     1  MOL      2

