@<TRIPOS>MOLECULE
4djr_ligand_057
    76    79
SMALL
GAST_HUCK
****
This file was generated by PARSER (from files_GN.cpp)

@<TRIPOS>ATOM
      1 O28        14.1269   41.4111   20.1954 O.2         1 MOL      -0.3971
      2 C27        14.8473   40.8381   19.3892 C.2         1 MOL       0.1764
      3 N29        14.5401   39.6870   18.8489 N.am        1 MOL      -0.2812
      4 C24        15.5317   39.1617   17.9815 C.3         1 MOL       0.0716
      5 C25        16.6041   40.2854   17.9567 C.3         1 MOL      -0.0105
      6 C26        16.1449   41.3097   19.0163 C.3         1 MOL       0.0394
      7 C22        16.0374   37.7897   18.4944 C.3         1 MOL       0.1003
      8 O23        17.0486   37.2622   17.6177 O.3         1 MOL      -0.2616
      9 C21        17.7013   36.0808   17.7796 C.2         1 MOL       0.3200
     10 O22        17.4007   35.2903   18.8398 O.2         1 MOL      -0.3775
     11 N20        18.6701   35.7534   16.8917 N.am        1 MOL      -0.2550
     12 C19        19.5412   34.6015   16.9273 C.3         1 MOL       0.0807
     13 C32        20.4603   34.6193   18.1973 C.3         1 MOL       0.0064
     14 C38        21.3284   35.8261   18.3073 C.ar        1 MOL      -0.0408
     15 C37        22.3924   36.0099   17.3887 C.ar        1 MOL      -0.0603
     16 C36        23.2591   37.1126   17.4986 C.ar        1 MOL      -0.0686
     17 C35        23.0799   38.0468   18.5359 C.ar        1 MOL      -0.0687
     18 C34        22.0272   37.8808   19.4531 C.ar        1 MOL      -0.0686
     19 C33        21.1575   36.7785   19.3415 C.ar        1 MOL      -0.0603
     20 C17        18.7466   33.2606   16.7011 C.3         1 MOL       0.0967
     21 O18        19.4713   32.1588   17.2434 O.3         1 MOL      -0.3877
     22 C16        18.3386   32.9878   15.2055 C.3         1 MOL       0.0579
     23 N11        18.9186   31.8082   14.5774 N.am        1 MOL      -0.2317
     24 C12        19.7194   31.9301   13.3671 C.3         1 MOL       0.0322
     25 C13        20.9103   30.9194   13.1535 C.3         1 MOL      -0.0270
     26 C14        21.0421   30.5165   11.6550 C.3         1 MOL      -0.0610
     27 C15        22.2847   31.4459   13.6847 C.3         1 MOL      -0.0518
     28 C18        22.3248   31.6766   15.2118 C.3         1 MOL      -0.0650
     29 S8         18.2846   30.2885   15.0255 S.o2        1 MOL       0.0679
     30 O10        16.9209   30.4587   15.8255 O.2         1 MOL      -0.1506
     31 O9         19.2795   29.6230   16.0764 O.2         1 MOL      -0.1506
     32 C5         17.9039   29.1144   13.7934 C.ar        1 MOL       0.1007
     33 C6         18.1992   27.7420   14.0043 C.ar        1 MOL      -0.0433
     34 C7         17.9241   26.7807   13.0149 C.ar        1 MOL      -0.0517
     35 C4         17.2830   29.5128   12.5836 C.ar        1 MOL      -0.0206
     36 C3         17.0347   28.5400   11.6029 C.ar        1 MOL       0.0595
     37 S1         16.3689   28.6681   10.0287 S.3         1 MOL       0.0026
     38 C1         16.5204   26.9902    9.6864 C.2         1 MOL       0.0809
     39 N1         17.0606   26.3685   10.7561 N.2         1 MOL      -0.2931
     40 C2         17.3494   27.1869   11.7991 C.ar        1 MOL       0.0375
     41 H1         13.7216   39.2045   19.0593 H           1 MOL       0.1855
     42 H2         15.0943   39.0339   16.9873 H           1 MOL       0.0584
     43 H3         16.6251   40.7578   16.9669 H           1 MOL       0.0313
     44 H4         17.6069   39.9144   18.1826 H           1 MOL       0.0313
     45 H5         16.8099   41.3059   19.8865 H           1 MOL       0.0503
     46 H6         16.0875   42.3190   18.6001 H           1 MOL       0.0503
     47 H7         15.1999   37.0883   18.5410 H           1 MOL       0.0634
     48 H8         16.4554   37.9021   19.4975 H           1 MOL       0.0634
     49 H9         18.8174   36.3850   16.1687 H           1 MOL       0.1873
     50 H10        20.2087   34.7081   16.0665 H           1 MOL       0.0604
     51 H11        21.1329   33.7584   18.1723 H           1 MOL       0.0449
     52 H12        19.8355   34.5082   19.0897 H           1 MOL       0.0449
     53 H13        22.5589   35.3304   16.6438 H           1 MOL       0.0557
     54 H14        24.0241   37.2301   16.8302 H           1 MOL       0.0599
     55 H15        23.7140   38.8460   18.6194 H           1 MOL       0.0559
     56 H16        21.9029   38.5604   20.2101 H           1 MOL       0.0599
     57 H17        20.4057   36.6710   20.0294 H           1 MOL       0.0557
     58 H18        17.8313   33.3091   17.2947 H           1 MOL       0.0634
     59 H19        18.8067   31.4464   17.3628 H           1 MOL       0.2100
     60 H20        18.5584   33.8807   14.6140 H           1 MOL       0.0504
     61 H21        17.2506   32.9132   15.1496 H           1 MOL       0.0504
     62 H22        20.1408   32.9386   13.2965 H           1 MOL       0.0481
     63 H23        19.0146   31.8496   12.5369 H           1 MOL       0.0481
     64 H24        20.7061   29.9877   13.6815 H           1 MOL       0.0314
     65 H25        21.8528   29.7962   11.5191 H           1 MOL       0.0233
     66 H26        21.2448   31.3877   11.0339 H           1 MOL       0.0233
     67 H27        20.1206   30.0475   11.3072 H           1 MOL       0.0233
     68 H28        22.5463   32.3808   13.1800 H           1 MOL       0.0266
     69 H29        23.0707   30.7184   13.4474 H           1 MOL       0.0266
     70 H30        23.3326   31.9685   15.5132 H           1 MOL       0.0230
     71 H31        22.0544   30.7653   15.7428 H           1 MOL       0.0230
     72 H32        21.6429   32.4728   15.4962 H           1 MOL       0.0230
     73 H33        18.6246   27.4334   14.8797 H           1 MOL       0.0580
     74 H34        18.1462   25.7979   13.1734 H           1 MOL       0.0584
     75 H35        17.0255   30.4876   12.4094 H           1 MOL       0.0592
     76 H36        16.2501   26.5322    8.8166 H           1 MOL       0.1260
@<TRIPOS>BOND
     1     1     2   2
     2     2     3  am
     3     2     6   1
     4     3     4   1
     5     4     5   1
     6     4     7   1
     7     5     6   1
     8     7     8   1
     9     8     9   1
    10     9    10   2
    11     9    11  am
    12    11    12   1
    13    12    13   1
    14    12    20   1
    15    13    14   1
    16    14    15  ar
    17    14    19  ar
    18    15    16  ar
    19    16    17  ar
    20    17    18  ar
    21    18    19  ar
    22    20    21   1
    23    20    22   1
    24    22    23   1
    25    23    24   1
    26    23    29  am
    27    24    25   1
    28    25    26   1
    29    25    27   1
    30    27    28   1
    31    29    30   2
    32    29    31   2
    33    29    32   1
    34    32    33  ar
    35    32    35  ar
    36    33    34  ar
    37    34    40  ar
    38    35    36  ar
    39    36    37   1
    40    36    40  ar
    41    37    38   1
    42    38    39   2
    43    39    40   1
    44     3    41   1
    45     4    42   1
    46     5    43   1
    47     5    44   1
    48     6    45   1
    49     6    46   1
    50     7    47   1
    51     7    48   1
    52    11    49   1
    53    12    50   1
    54    13    51   1
    55    13    52   1
    56    15    53   1
    57    16    54   1
    58    17    55   1
    59    18    56   1
    60    19    57   1
    61    20    58   1
    62    21    59   1
    63    22    60   1
    64    22    61   1
    65    24    62   1
    66    24    63   1
    67    25    64   1
    68    26    65   1
    69    26    66   1
    70    26    67   1
    71    27    68   1
    72    27    69   1
    73    28    70   1
    74    28    71   1
    75    28    72   1
    76    33    73   1
    77    34    74   1
    78    35    75   1
    79    38    76   1
@<TRIPOS>SUBSTRUCTURE
     1  MOL      2

