@<TRIPOS>MOLECULE
4djr_ligand_067
    76    79
SMALL
GAST_HUCK
****
This file was generated by PARSER (from files_GN.cpp)

@<TRIPOS>ATOM
      1 O28        14.0352   41.0426   19.8234 O.2         1 MOL      -0.3971
      2 C27        14.8771   40.4581   19.1575 C.2         1 MOL       0.1764
      3 N29        14.7124   39.2310   18.7309 N.am        1 MOL      -0.2812
      4 C24        15.7724   38.7427   17.9282 C.3         1 MOL       0.0716
      5 C25        16.7443   39.9542   17.8483 C.3         1 MOL      -0.0105
      6 C26        16.1102   41.0474   18.7326 C.3         1 MOL       0.0394
      7 C22        16.3976   37.4487   18.5133 C.3         1 MOL       0.1003
      8 O23        17.4500   37.0162   17.6408 O.3         1 MOL      -0.2616
      9 C21        18.3685   36.0344   17.8394 C.2         1 MOL       0.3200
     10 O22        18.3585   35.2398   18.9455 O.2         1 MOL      -0.3775
     11 N20        19.3099   35.9427   16.8701 N.am        1 MOL      -0.2550
     12 C19        20.4880   35.1146   16.8364 C.3         1 MOL       0.0807
     13 C32        21.3381   35.2150   18.1502 C.3         1 MOL       0.0064
     14 C38        22.0008   36.5412   18.3372 C.ar        1 MOL      -0.0408
     15 C37        22.9178   37.0168   17.3636 C.ar        1 MOL      -0.0603
     16 C36        23.5628   38.2602   17.5174 C.ar        1 MOL      -0.0686
     17 C35        23.3122   39.0429   18.6574 C.ar        1 MOL      -0.0687
     18 C34        22.4171   38.5850   19.6421 C.ar        1 MOL      -0.0686
     19 C33        21.7659   37.3422   19.4851 C.ar        1 MOL      -0.0603
     20 C17        20.1931   33.6445   16.3244 C.3         1 MOL       0.0967
     21 O18        20.8672   32.6392   17.0965 O.3         1 MOL      -0.3877
     22 C16        20.6115   33.4675   14.8204 C.3         1 MOL       0.0579
     23 N11        20.4301   32.1665   14.1835 N.am        1 MOL      -0.2317
     24 C12        21.5526   31.5157   13.5067 C.3         1 MOL       0.0322
     25 C13        22.3366   30.4241   14.3013 C.3         1 MOL      -0.0270
     26 C14        23.2876   31.0228   15.3763 C.3         1 MOL      -0.0610
     27 C15        21.4718   29.2163   14.7970 C.3         1 MOL      -0.0518
     28 C18        20.4978   29.4644   15.9784 C.3         1 MOL      -0.0650
     29 S8         18.8888   31.7971   13.5718 S.o2        1 MOL       0.0679
     30 O10        18.7329   30.2099   13.5012 O.2         1 MOL      -0.1506
     31 O9         18.8650   32.2507   12.0456 O.2         1 MOL      -0.1506
     32 C5         17.4834   32.4238   14.3898 C.ar        1 MOL       0.1007
     33 C6         16.5386   31.5439   14.9728 C.ar        1 MOL      -0.0433
     34 C7         15.4177   32.0487   15.6590 C.ar        1 MOL      -0.0517
     35 C4         17.3120   33.8238   14.5049 C.ar        1 MOL      -0.0206
     36 C3         16.2058   34.2956   15.2233 C.ar        1 MOL       0.0595
     37 S1         15.7353   35.8935   15.6237 S.3         1 MOL       0.0026
     38 C1         14.3288   35.4013   16.4853 C.2         1 MOL       0.0809
     39 N1         14.2525   34.0522   16.4697 N.2         1 MOL      -0.2931
     40 C2         15.2581   33.4355   15.7982 C.ar        1 MOL       0.0375
     41 H1         13.9148   38.7163   18.9190 H           1 MOL       0.1855
     42 H2         15.3654   38.5297   16.9315 H           1 MOL       0.0584
     43 H3         16.8306   40.3037   16.8136 H           1 MOL       0.0313
     44 H4         17.7467   39.7045   18.2131 H           1 MOL       0.0313
     45 H5         16.7380   41.2750   19.6030 H           1 MOL       0.0503
     46 H6         15.9216   41.9653   18.1622 H           1 MOL       0.0503
     47 H7         15.6349   36.6677   18.5840 H           1 MOL       0.0634
     48 H8         16.7918   37.6463   19.5179 H           1 MOL       0.0634
     49 H9         19.2086   36.5452   16.1106 H           1 MOL       0.1873
     50 H10        21.1062   35.6064   16.0683 H           1 MOL       0.0604
     51 H11        22.1375   34.4594   18.1273 H           1 MOL       0.0449
     52 H12        20.6841   34.9879   19.0043 H           1 MOL       0.0449
     53 H13        23.1292   36.4509   16.5323 H           1 MOL       0.0557
     54 H14        24.2165   38.5944   16.8023 H           1 MOL       0.0599
     55 H15        23.7857   39.9418   18.7797 H           1 MOL       0.0559
     56 H16        22.2400   39.1535   20.4724 H           1 MOL       0.0599
     57 H17        21.1174   37.0256   20.2100 H           1 MOL       0.0557
     58 H18        19.1205   33.4368   16.4309 H           1 MOL       0.0634
     59 H19        20.4694   32.7006   17.9937 H           1 MOL       0.2100
     60 H20        21.6729   33.7542   14.7658 H           1 MOL       0.0504
     61 H21        20.0579   34.2193   14.2361 H           1 MOL       0.0504
     62 H22        22.2669   32.2782   13.1675 H           1 MOL       0.0481
     63 H23        21.2224   31.0344   12.5818 H           1 MOL       0.0481
     64 H24        23.0222   29.9864   13.5635 H           1 MOL       0.0314
     65 H25        23.8284   30.2249   15.8932 H           1 MOL       0.0233
     66 H26        22.7323   31.6099   16.1192 H           1 MOL       0.0233
     67 H27        24.0243   31.6823   14.9005 H           1 MOL       0.0233
     68 H28        22.1529   28.4082   15.0946 H           1 MOL       0.0266
     69 H29        20.8910   28.8363   13.9507 H           1 MOL       0.0266
     70 H30        20.0222   28.5186   16.2551 H           1 MOL       0.0230
     71 H31        19.7169   30.1658   15.6921 H           1 MOL       0.0230
     72 H32        21.0297   29.8500   16.8502 H           1 MOL       0.0230
     73 H33        16.6562   30.5265   14.9040 H           1 MOL       0.0580
     74 H34        14.7354   31.4076   16.0733 H           1 MOL       0.0584
     75 H35        17.9931   34.4738   14.1041 H           1 MOL       0.0592
     76 H36        13.6608   36.0222   16.9413 H           1 MOL       0.1260
@<TRIPOS>BOND
     1     1     2   2
     2     2     3  am
     3     2     6   1
     4     3     4   1
     5     4     5   1
     6     4     7   1
     7     5     6   1
     8     7     8   1
     9     8     9   1
    10     9    10   2
    11     9    11  am
    12    11    12   1
    13    12    13   1
    14    12    20   1
    15    13    14   1
    16    14    15  ar
    17    14    19  ar
    18    15    16  ar
    19    16    17  ar
    20    17    18  ar
    21    18    19  ar
    22    20    21   1
    23    20    22   1
    24    22    23   1
    25    23    24   1
    26    23    29  am
    27    24    25   1
    28    25    26   1
    29    25    27   1
    30    27    28   1
    31    29    30   2
    32    29    31   2
    33    29    32   1
    34    32    33  ar
    35    32    35  ar
    36    33    34  ar
    37    34    40  ar
    38    35    36  ar
    39    36    37   1
    40    36    40  ar
    41    37    38   1
    42    38    39   2
    43    39    40   1
    44     3    41   1
    45     4    42   1
    46     5    43   1
    47     5    44   1
    48     6    45   1
    49     6    46   1
    50     7    47   1
    51     7    48   1
    52    11    49   1
    53    12    50   1
    54    13    51   1
    55    13    52   1
    56    15    53   1
    57    16    54   1
    58    17    55   1
    59    18    56   1
    60    19    57   1
    61    20    58   1
    62    21    59   1
    63    22    60   1
    64    22    61   1
    65    24    62   1
    66    24    63   1
    67    25    64   1
    68    26    65   1
    69    26    66   1
    70    26    67   1
    71    27    68   1
    72    27    69   1
    73    28    70   1
    74    28    71   1
    75    28    72   1
    76    33    73   1
    77    34    74   1
    78    35    75   1
    79    38    76   1
@<TRIPOS>SUBSTRUCTURE
     1  MOL      2

