@<TRIPOS>MOLECULE
4djv_ligand_022
    50    53
SMALL
GAST_HUCK
****
This file was generated by PARSER (from files_GN.cpp)

@<TRIPOS>ATOM
      1 O1         17.7332   12.0812   20.1384 O.2         1 MOL      -0.3721
      2 C1         17.0556   11.7718   21.1077 C.2         1 MOL       0.1984
      3 C2         17.1575   10.4762   21.7844 C.3         1 MOL       0.1861
      4 N1         16.0528   10.6481   22.6786 N.pl3       1 MOL      -0.2773
      5 C3         15.4957   11.8571   22.5894 C.cat       1 MOL       0.3179
      6 N2         16.0955   12.5334   21.5999 N.am        1 MOL      -0.2211
      7 N3         14.4926   12.2705   23.3846 N.pl3       1 MOL      -0.2550
      8 C4         15.6992   13.8338   21.1490 C.3         1 MOL       0.0234
      9 C5         16.8243    9.3457   20.8300 C.ar        1 MOL      -0.0137
     10 C6         17.7527    8.3432   20.4469 C.ar        1 MOL      -0.0453
     11 C7         17.4271    7.3468   19.5062 C.ar        1 MOL      -0.0390
     12 C8         16.1485    7.3109   18.9333 C.ar        1 MOL      -0.0398
     13 C9         15.1936    8.2625   19.3104 C.ar        1 MOL      -0.0390
     14 C10        15.5352    9.2688   20.2313 C.ar        1 MOL      -0.0453
     15 C11        18.4667   10.3912   22.5596 C.ar        1 MOL      -0.0130
     16 C12        18.5051   10.2227   23.9736 C.ar        1 MOL      -0.0451
     17 C13        19.7136   10.1725   24.6864 C.ar        1 MOL      -0.0383
     18 C14        20.9310   10.2406   23.9976 C.ar        1 MOL      -0.0321
     19 C15        20.9585   10.4033   22.5934 C.ar        1 MOL       0.0021
     20 C16        19.7225   10.5053   21.9054 C.ar        1 MOL      -0.0377
     21 C17        24.6237   10.5589   20.4226 C.ar        1 MOL      -0.0329
     22 C18        22.4265   11.4751   20.9210 C.ar        1 MOL      -0.0254
     23 C19        22.2012   10.4702   21.8916 C.ar        1 MOL      -0.0214
     24 C20        23.2365    9.5309   22.1344 C.ar        1 MOL      -0.0645
     25 C21        24.4405    9.5787   21.4123 C.ar        1 MOL      -0.0697
     26 C22        23.6107   11.5030   20.1597 C.ar        1 MOL       0.0911
     27 O2         23.8155   12.4633   19.2050 O.3         1 MOL      -0.3214
     28 C23        23.0793   12.2323   17.9890 C.3         1 MOL       0.0593
     29 H1         15.7862    9.9816   23.3311 H           1 MOL       0.3068
     30 H2         14.1455   11.6819   24.0747 H           1 MOL       0.3199
     31 H3         14.1342   13.1680   23.2918 H           1 MOL       0.3199
     32 H4         16.2900   14.1741   20.2945 H           1 MOL       0.0484
     33 H5         15.8155   14.5622   21.9549 H           1 MOL       0.0484
     34 H6         14.6520   13.8104   20.8395 H           1 MOL       0.0484
     35 H7         18.6871    8.3223   20.8400 H           1 MOL       0.0795
     36 H8         18.1233    6.6451   19.2374 H           1 MOL       0.0681
     37 H9         15.9164    6.6043   18.2363 H           1 MOL       0.0806
     38 H10        14.2534    8.2279   18.9064 H           1 MOL       0.0681
     39 H11        14.8176    9.9527   20.4699 H           1 MOL       0.0795
     40 H12        17.6432   10.1488   24.5149 H           1 MOL       0.0796
     41 H13        19.7063   10.0765   25.6977 H           1 MOL       0.0682
     42 H14        21.8021   10.1897   24.5331 H           1 MOL       0.0813
     43 H15        19.7395   10.6171   20.8948 H           1 MOL       0.0801
     44 H16        25.5018   10.5875   19.8939 H           1 MOL       0.0545
     45 H17        21.7233   12.1964   20.7513 H           1 MOL       0.0544
     46 H18        23.1100    8.7881   22.8260 H           1 MOL       0.0532
     47 H19        25.1728    8.8929   21.5934 H           1 MOL       0.0590
     48 H20        23.3371   13.0146   17.2749 H           1 MOL       0.0577
     49 H21        22.0011   12.2779   18.1628 H           1 MOL       0.0577
     50 H22        23.3337   11.2682   17.5410 H           1 MOL       0.0577
@<TRIPOS>BOND
     1     2     1   2
     2     3     2   1
     3     2     6  am
     4     3     4   1
     5     3     9   1
     6    15     3   1
     7     4     5  ar
     8     5     6   1
     9     5     7  ar
    10     6     8   1
    11     9    10  ar
    12     9    14  ar
    13    10    11  ar
    14    11    12  ar
    15    13    12  ar
    16    14    13  ar
    17    15    16  ar
    18    20    15  ar
    19    17    16  ar
    20    18    17  ar
    21    19    18  ar
    22    19    20  ar
    23    23    19   1
    24    21    25  ar
    25    26    21  ar
    26    22    23  ar
    27    22    26  ar
    28    23    24  ar
    29    24    25  ar
    30    26    27   1
    31    27    28   1
    32     4    29   1
    33     7    30   1
    34     7    31   1
    35     8    32   1
    36     8    33   1
    37     8    34   1
    38    10    35   1
    39    11    36   1
    40    12    37   1
    41    13    38   1
    42    14    39   1
    43    16    40   1
    44    17    41   1
    45    18    42   1
    46    20    43   1
    47    21    44   1
    48    22    45   1
    49    24    46   1
    50    25    47   1
    51    28    48   1
    52    28    49   1
    53    28    50   1
@<TRIPOS>SUBSTRUCTURE
     1  MOL      2

