@<TRIPOS>MOLECULE
4djv_ligand_028
    50    53
SMALL
GAST_HUCK
****
This file was generated by PARSER (from files_GN.cpp)

@<TRIPOS>ATOM
      1 O1         23.2745   12.0548   21.8163 O.2         1 MOL      -0.3721
      2 C1         23.2798   11.1952   22.6875 C.2         1 MOL       0.1984
      3 C2         22.8415   11.4519   24.0573 C.3         1 MOL       0.1861
      4 N1         23.0989   10.1684   24.6073 N.pl3       1 MOL      -0.2773
      5 C3         23.5839    9.3200   23.7007 C.cat       1 MOL       0.3179
      6 N2         23.7198    9.9570   22.5212 N.am        1 MOL      -0.2211
      7 N3         23.8828    8.0471   23.9836 N.pl3       1 MOL      -0.2550
      8 C4         24.2708    9.3681   21.3402 C.3         1 MOL       0.0234
      9 C5         23.7298   12.3916   24.8515 C.ar        1 MOL      -0.0137
     10 C6         23.2733   12.9576   26.0741 C.ar        1 MOL      -0.0453
     11 C7         24.0749   13.8465   26.8179 C.ar        1 MOL      -0.0390
     12 C8         25.3886   14.1293   26.4047 C.ar        1 MOL      -0.0398
     13 C9         25.8961   13.5209   25.2459 C.ar        1 MOL      -0.0390
     14 C10        25.0742   12.6712   24.4787 C.ar        1 MOL      -0.0453
     15 C11        21.3527   11.7326   24.0142 C.ar        1 MOL      -0.0130
     16 C12        20.3901   10.6937   23.8908 C.ar        1 MOL      -0.0451
     17 C13        19.0127   10.9813   23.8474 C.ar        1 MOL      -0.0383
     18 C14        18.5696   12.3116   23.9163 C.ar        1 MOL      -0.0321
     19 C15        19.4850   13.3868   24.0224 C.ar        1 MOL       0.0021
     20 C16        20.8688   13.0665   24.0290 C.ar        1 MOL      -0.0377
     21 C17        18.2205   17.4483   24.5500 C.ar        1 MOL      -0.0329
     22 C18        19.7316   15.8169   23.5550 C.ar        1 MOL      -0.0254
     23 C19        19.0300   14.7395   24.1600 C.ar        1 MOL      -0.0214
     24 C20        17.8895   15.0677   24.9459 C.ar        1 MOL      -0.0645
     25 C21        17.4822   16.4025   25.1254 C.ar        1 MOL      -0.0697
     26 C22        19.3622   17.1572   23.7740 C.ar        1 MOL       0.0911
     27 O2         20.1039   18.1595   23.2042 O.3         1 MOL      -0.3214
     28 C23        21.2224   18.5638   24.0131 C.3         1 MOL       0.0593
     29 H1         22.9331    9.9317   25.5351 H           1 MOL       0.3068
     30 H2         23.7396    7.7059   24.8809 H           1 MOL       0.3199
     31 H3         24.2427    7.4679   23.2953 H           1 MOL       0.3199
     32 H4         24.3209   10.0760   20.5093 H           1 MOL       0.0484
     33 H5         23.6578    8.5198   21.0293 H           1 MOL       0.0484
     34 H6         25.2842    9.0140   21.5445 H           1 MOL       0.0484
     35 H7         22.3423   12.7385   26.4297 H           1 MOL       0.0795
     36 H8         23.7078   14.2719   27.6679 H           1 MOL       0.0681
     37 H9         25.9767   14.7589   26.9555 H           1 MOL       0.0806
     38 H10        26.8634   13.6913   24.9611 H           1 MOL       0.0681
     39 H11        25.4866   12.2434   23.6499 H           1 MOL       0.0795
     40 H12        20.6731    9.7126   23.8273 H           1 MOL       0.0796
     41 H13        18.3332   10.2209   23.7695 H           1 MOL       0.0682
     42 H14        17.5653   12.4902   23.8721 H           1 MOL       0.0813
     43 H15        21.5487   13.8258   24.0813 H           1 MOL       0.0801
     44 H16        17.9311   18.4173   24.7059 H           1 MOL       0.0545
     45 H17        20.5337   15.6320   22.9488 H           1 MOL       0.0544
     46 H18        17.3582   14.3363   25.4198 H           1 MOL       0.0532
     47 H19        16.6580   16.6163   25.6962 H           1 MOL       0.0590
     48 H20        21.7716   19.3305   23.4659 H           1 MOL       0.0577
     49 H21        21.9074   17.7332   24.2081 H           1 MOL       0.0577
     50 H22        20.8896   18.9934   24.9615 H           1 MOL       0.0577
@<TRIPOS>BOND
     1     2     1   2
     2     3     2   1
     3     2     6  am
     4     3     4   1
     5     3     9   1
     6    15     3   1
     7     4     5  ar
     8     5     6   1
     9     5     7  ar
    10     6     8   1
    11     9    10  ar
    12     9    14  ar
    13    10    11  ar
    14    11    12  ar
    15    13    12  ar
    16    14    13  ar
    17    15    16  ar
    18    20    15  ar
    19    17    16  ar
    20    18    17  ar
    21    19    18  ar
    22    19    20  ar
    23    23    19   1
    24    21    25  ar
    25    26    21  ar
    26    22    23  ar
    27    22    26  ar
    28    23    24  ar
    29    24    25  ar
    30    26    27   1
    31    27    28   1
    32     4    29   1
    33     7    30   1
    34     7    31   1
    35     8    32   1
    36     8    33   1
    37     8    34   1
    38    10    35   1
    39    11    36   1
    40    12    37   1
    41    13    38   1
    42    14    39   1
    43    16    40   1
    44    17    41   1
    45    18    42   1
    46    20    43   1
    47    21    44   1
    48    22    45   1
    49    24    46   1
    50    25    47   1
    51    28    48   1
    52    28    49   1
    53    28    50   1
@<TRIPOS>SUBSTRUCTURE
     1  MOL      2

