@<TRIPOS>MOLECULE
4djv_ligand_038
    50    53
SMALL
GAST_HUCK
****
This file was generated by PARSER (from files_GN.cpp)

@<TRIPOS>ATOM
      1 O1         23.7013   13.2404   20.8763 O.2         1 MOL      -0.3721
      2 C1         23.7243   12.0306   20.6891 C.2         1 MOL       0.1984
      3 C2         24.3542   11.0843   21.6130 C.3         1 MOL       0.1861
      4 N1         24.1609    9.9131   20.8087 N.pl3       1 MOL      -0.2773
      5 C3         23.4933   10.1454   19.6774 C.cat       1 MOL       0.3179
      6 N2         23.2312   11.4577   19.6023 N.am        1 MOL      -0.2211
      7 N3         23.1920    9.1803   18.7917 N.pl3       1 MOL      -0.2550
      8 C4         22.5421   12.0849   18.5098 C.3         1 MOL       0.0234
      9 C5         25.8255   11.4225   21.7648 C.ar        1 MOL      -0.0137
     10 C6         26.2845   12.3634   22.7267 C.ar        1 MOL      -0.0453
     11 C7         27.6427   12.7167   22.8327 C.ar        1 MOL      -0.0390
     12 C8         28.5852   12.1557   21.9577 C.ar        1 MOL      -0.0398
     13 C9         28.1647   11.2442   20.9764 C.ar        1 MOL      -0.0390
     14 C10        26.8058   10.8885   20.8815 C.ar        1 MOL      -0.0453
     15 C11        23.5876   10.9000   22.9170 C.ar        1 MOL      -0.0130
     16 C12        23.3478    9.6127   23.4713 C.ar        1 MOL      -0.0451
     17 C13        22.5970    9.4393   24.6454 C.ar        1 MOL      -0.0383
     18 C14        22.0994   10.5560   25.3311 C.ar        1 MOL      -0.0321
     19 C15        22.3447   11.8611   24.8513 C.ar        1 MOL       0.0021
     20 C16        23.0699   12.0062   23.6441 C.ar        1 MOL      -0.0377
     21 C17        21.0047   15.2625   27.0389 C.ar        1 MOL      -0.0329
     22 C18        21.1481   14.0238   24.9460 C.ar        1 MOL      -0.0254
     23 C19        21.8937   12.9999   25.5798 C.ar        1 MOL      -0.0214
     24 C20        22.1926   13.1387   26.9575 C.ar        1 MOL      -0.0645
     25 C21        21.7546   14.2620   27.6813 C.ar        1 MOL      -0.0697
     26 C22        20.7094   15.1535   25.6646 C.ar        1 MOL       0.0911
     27 O2         19.9549   16.1083   25.0376 O.3         1 MOL      -0.3214
     28 C23        20.7255   17.2160   24.5409 C.3         1 MOL       0.0593
     29 H1         24.4861    9.0331   21.0579 H           1 MOL       0.3068
     30 H2         23.4497    8.2624   18.9697 H           1 MOL       0.3199
     31 H3         22.7120    9.3950   17.9764 H           1 MOL       0.3199
     32 H4         22.4305   13.1618   18.6502 H           1 MOL       0.0484
     33 H5         21.5434   11.6527   18.4124 H           1 MOL       0.0484
     34 H6         23.0897   11.9188   17.5784 H           1 MOL       0.0484
     35 H7         25.6372   12.8104   23.3725 H           1 MOL       0.0795
     36 H8         27.9438   13.3889   23.5417 H           1 MOL       0.0681
     37 H9         29.5695   12.4212   22.0241 H           1 MOL       0.0806
     38 H10        28.8452   10.8457   20.3258 H           1 MOL       0.0681
     39 H11        26.5432   10.2390   20.1380 H           1 MOL       0.0795
     40 H12        23.7150    8.7735   23.0195 H           1 MOL       0.0796
     41 H13        22.4216    8.4990   25.0091 H           1 MOL       0.0682
     42 H14        21.5625   10.4085   26.1895 H           1 MOL       0.0813
     43 H15        23.2499   12.9529   23.3082 H           1 MOL       0.0801
     44 H16        20.6779   16.0728   27.5729 H           1 MOL       0.0545
     45 H17        20.9091   13.9493   23.9547 H           1 MOL       0.0544
     46 H18        22.7433   12.4257   27.4442 H           1 MOL       0.0532
     47 H19        21.9776   14.3491   28.6753 H           1 MOL       0.0590
     48 H20        20.0472   17.8970   24.0256 H           1 MOL       0.0577
     49 H21        21.4862   16.8894   23.8275 H           1 MOL       0.0577
     50 H22        21.2019   17.7636   25.3574 H           1 MOL       0.0577
@<TRIPOS>BOND
     1     2     1   2
     2     3     2   1
     3     2     6  am
     4     3     4   1
     5     3     9   1
     6    15     3   1
     7     4     5  ar
     8     5     6   1
     9     5     7  ar
    10     6     8   1
    11     9    10  ar
    12     9    14  ar
    13    10    11  ar
    14    11    12  ar
    15    13    12  ar
    16    14    13  ar
    17    15    16  ar
    18    20    15  ar
    19    17    16  ar
    20    18    17  ar
    21    19    18  ar
    22    19    20  ar
    23    23    19   1
    24    21    25  ar
    25    26    21  ar
    26    22    23  ar
    27    22    26  ar
    28    23    24  ar
    29    24    25  ar
    30    26    27   1
    31    27    28   1
    32     4    29   1
    33     7    30   1
    34     7    31   1
    35     8    32   1
    36     8    33   1
    37     8    34   1
    38    10    35   1
    39    11    36   1
    40    12    37   1
    41    13    38   1
    42    14    39   1
    43    16    40   1
    44    17    41   1
    45    18    42   1
    46    20    43   1
    47    21    44   1
    48    22    45   1
    49    24    46   1
    50    25    47   1
    51    28    48   1
    52    28    49   1
    53    28    50   1
@<TRIPOS>SUBSTRUCTURE
     1  MOL      2

