@<TRIPOS>MOLECULE
4djv_ligand_031
    50    53
SMALL
GAST_HUCK
****
This file was generated by PARSER (from files_GN.cpp)

@<TRIPOS>ATOM
      1 O1         15.6924   11.3290   21.9273 O.2         1 MOL      -0.3721
      2 C1         16.2246   10.6329   22.7827 C.2         1 MOL       0.1984
      3 C2         17.5332   10.9247   23.3749 C.3         1 MOL       0.1861
      4 N1         17.6087    9.7718   24.2187 N.pl3       1 MOL      -0.2773
      5 C3         16.5377    8.9856   24.1305 C.cat       1 MOL       0.3179
      6 N2         15.6787    9.5243   23.2543 N.am        1 MOL      -0.2211
      7 N3         16.4280    7.8432   24.8260 N.pl3       1 MOL      -0.2550
      8 C4         14.4076    8.9539   22.9219 C.3         1 MOL       0.0234
      9 C5         18.6075   10.9648   22.3129 C.ar        1 MOL      -0.0137
     10 C6         19.6010    9.9568   22.1869 C.ar        1 MOL      -0.0453
     11 C7         20.5959   10.0256   21.1940 C.ar        1 MOL      -0.0390
     12 C8         20.6267   11.1110   20.3036 C.ar        1 MOL      -0.0398
     13 C9         19.6548   12.1206   20.4008 C.ar        1 MOL      -0.0390
     14 C10        18.6606   12.0476   21.3949 C.ar        1 MOL      -0.0453
     15 C11        17.6212   12.1358   24.2735 C.ar        1 MOL      -0.0130
     16 C12        16.6654   13.1857   24.2779 C.ar        1 MOL      -0.0451
     17 C13        16.8048   14.3029   25.1200 C.ar        1 MOL      -0.0383
     18 C14        17.9032   14.3969   25.9884 C.ar        1 MOL      -0.0321
     19 C15        18.8666   13.3691   26.0165 C.ar        1 MOL       0.0021
     20 C16        18.7219   12.2562   25.1618 C.ar        1 MOL      -0.0377
     21 C17        22.0285   13.6289   28.8013 C.ar        1 MOL      -0.0329
     22 C18        19.8767   12.7144   28.1360 C.ar        1 MOL      -0.0254
     23 C19        19.9390   13.4341   26.9234 C.ar        1 MOL      -0.0214
     24 C20        21.0664   14.2350   26.6457 C.ar        1 MOL      -0.0645
     25 C21        22.1176   14.3139   27.5749 C.ar        1 MOL      -0.0697
     26 C22        20.8968   12.8453   29.1044 C.ar        1 MOL       0.0911
     27 O2         20.8535   12.1815   30.3076 O.3         1 MOL      -0.3214
     28 C23        19.6702   12.4041   31.1015 C.3         1 MOL       0.0593
     29 H1         18.3703    9.5463   24.7794 H           1 MOL       0.3068
     30 H2         17.1634    7.5713   25.4002 H           1 MOL       0.3199
     31 H3         15.6434    7.2793   24.7310 H           1 MOL       0.3199
     32 H4         13.8567    9.5619   22.2028 H           1 MOL       0.0484
     33 H5         13.8006    8.8668   23.8265 H           1 MOL       0.0484
     34 H6         14.5471    7.9593   22.4901 H           1 MOL       0.0484
     35 H7         19.6128    9.1518   22.8157 H           1 MOL       0.0795
     36 H8         21.2967    9.2847   21.1204 H           1 MOL       0.0681
     37 H9         21.3502   11.1614   19.5828 H           1 MOL       0.0806
     38 H10        19.6719   12.9097   19.7479 H           1 MOL       0.0681
     39 H11        17.9685   12.7986   21.4415 H           1 MOL       0.0795
     40 H12        15.8515   13.1582   23.6663 H           1 MOL       0.0796
     41 H13        16.1045   15.0474   25.1054 H           1 MOL       0.0682
     42 H14        17.9836   15.2072   26.6102 H           1 MOL       0.0813
     43 H15        19.4264   11.5117   25.1961 H           1 MOL       0.0801
     44 H16        22.7924   13.6996   29.4745 H           1 MOL       0.0545
     45 H17        19.0744   12.1105   28.3292 H           1 MOL       0.0544
     46 H18        21.1341   14.7566   25.7663 H           1 MOL       0.0532
     47 H19        22.9426   14.8784   27.3581 H           1 MOL       0.0590
     48 H20        19.7963   11.8977   32.0592 H           1 MOL       0.0577
     49 H21        18.7868   11.9843   30.6161 H           1 MOL       0.0577
     50 H22        19.5041   13.4667   31.2957 H           1 MOL       0.0577
@<TRIPOS>BOND
     1     2     1   2
     2     3     2   1
     3     2     6  am
     4     3     4   1
     5     3     9   1
     6    15     3   1
     7     4     5  ar
     8     5     6   1
     9     5     7  ar
    10     6     8   1
    11     9    10  ar
    12     9    14  ar
    13    10    11  ar
    14    11    12  ar
    15    13    12  ar
    16    14    13  ar
    17    15    16  ar
    18    20    15  ar
    19    17    16  ar
    20    18    17  ar
    21    19    18  ar
    22    19    20  ar
    23    23    19   1
    24    21    25  ar
    25    26    21  ar
    26    22    23  ar
    27    22    26  ar
    28    23    24  ar
    29    24    25  ar
    30    26    27   1
    31    27    28   1
    32     4    29   1
    33     7    30   1
    34     7    31   1
    35     8    32   1
    36     8    33   1
    37     8    34   1
    38    10    35   1
    39    11    36   1
    40    12    37   1
    41    13    38   1
    42    14    39   1
    43    16    40   1
    44    17    41   1
    45    18    42   1
    46    20    43   1
    47    21    44   1
    48    22    45   1
    49    24    46   1
    50    25    47   1
    51    28    48   1
    52    28    49   1
    53    28    50   1
@<TRIPOS>SUBSTRUCTURE
     1  MOL      2

