@<TRIPOS>MOLECULE
4djv_ligand_006
    50    53
SMALL
GAST_HUCK
****
This file was generated by PARSER (from files_GN.cpp)

@<TRIPOS>ATOM
      1 O1         18.3851   10.9622   26.6109 O.2         1 MOL      -0.3721
      2 C1         19.1918   10.5672   25.7742 C.2         1 MOL       0.1984
      3 C2         18.9393   10.6128   24.3276 C.3         1 MOL       0.1861
      4 N1         20.0991    9.8696   23.9413 N.pl3       1 MOL      -0.2773
      5 C3         20.9108    9.5727   24.9572 C.cat       1 MOL       0.3179
      6 N2         20.3448   10.0129   26.0921 N.am        1 MOL      -0.2211
      7 N3         22.0724    8.9164   24.8073 N.pl3       1 MOL      -0.2550
      8 C4         20.9082    9.8666   27.4049 C.3         1 MOL       0.0234
      9 C5         17.7343    9.8230   23.8329 C.ar        1 MOL      -0.0137
     10 C6         16.8916    9.0574   24.6915 C.ar        1 MOL      -0.0453
     11 C7         15.8481    8.2540   24.1903 C.ar        1 MOL      -0.0390
     12 C8         15.6061    8.1958   22.8086 C.ar        1 MOL      -0.0398
     13 C9         16.4160    8.9360   21.9322 C.ar        1 MOL      -0.0390
     14 C10        17.4676    9.7264   22.4397 C.ar        1 MOL      -0.0453
     15 C11        19.0500   12.0327   23.7634 C.ar        1 MOL      -0.0130
     16 C12        19.4433   12.2412   22.4165 C.ar        1 MOL      -0.0451
     17 C13        19.5733   13.5274   21.8706 C.ar        1 MOL      -0.0383
     18 C14        19.3888   14.6545   22.6829 C.ar        1 MOL      -0.0321
     19 C15        19.0672   14.5252   24.0538 C.ar        1 MOL       0.0021
     20 C16        18.8483   13.2074   24.5462 C.ar        1 MOL      -0.0377
     21 C17        18.9193   17.9878   26.5816 C.ar        1 MOL      -0.0329
     22 C18        19.8720   16.7971   24.6903 C.ar        1 MOL      -0.0254
     23 C19        19.0183   15.6833   24.9046 C.ar        1 MOL      -0.0214
     24 C20        18.1257   15.7563   26.0065 C.ar        1 MOL      -0.0645
     25 C21        18.0834   16.8883   26.8402 C.ar        1 MOL      -0.0697
     26 C22        19.8276   17.9581   25.5013 C.ar        1 MOL       0.0911
     27 O2         20.5985   19.0957   25.3604 O.3         1 MOL      -0.3214
     28 C23        21.7357   19.1147   24.4869 C.3         1 MOL       0.0593
     29 H1         20.3070    9.6496   23.0177 H           1 MOL       0.3068
     30 H2         22.3341    8.5781   23.9332 H           1 MOL       0.3199
     31 H3         22.6463    8.7544   25.5729 H           1 MOL       0.3199
     32 H4         20.2262   10.2083   28.1854 H           1 MOL       0.0484
     33 H5         21.8232   10.4589   27.4735 H           1 MOL       0.0484
     34 H6         21.1473    8.8187   27.6003 H           1 MOL       0.0484
     35 H7         17.0412    9.0379   25.7017 H           1 MOL       0.0795
     36 H8         15.2722    7.7052   24.8318 H           1 MOL       0.0681
     37 H9         14.8419    7.6127   22.4536 H           1 MOL       0.0806
     38 H10        16.2462    8.8895   20.9212 H           1 MOL       0.0681
     39 H11        18.0529   10.2157   21.7571 H           1 MOL       0.0795
     40 H12        19.6625   11.4575   21.8068 H           1 MOL       0.0796
     41 H13        19.8368   13.6435   20.8892 H           1 MOL       0.0682
     42 H14        19.5098   15.5766   22.2595 H           1 MOL       0.0813
     43 H15        18.5940   13.1074   25.5256 H           1 MOL       0.0801
     44 H16        18.8715   18.8097   27.1873 H           1 MOL       0.0545
     45 H17        20.5631   16.7603   23.9388 H           1 MOL       0.0544
     46 H18        17.4653   14.9998   26.1907 H           1 MOL       0.0532
     47 H19        17.4230   16.9275   27.6189 H           1 MOL       0.0590
     48 H20        22.2309   20.0806   24.5968 H           1 MOL       0.0577
     49 H21        21.4182   19.0036   23.4489 H           1 MOL       0.0577
     50 H22        22.4491   18.3290   24.7438 H           1 MOL       0.0577
@<TRIPOS>BOND
     1     2     1   2
     2     3     2   1
     3     2     6  am
     4     3     4   1
     5     3     9   1
     6    15     3   1
     7     4     5  ar
     8     5     6   1
     9     5     7  ar
    10     6     8   1
    11     9    10  ar
    12     9    14  ar
    13    10    11  ar
    14    11    12  ar
    15    13    12  ar
    16    14    13  ar
    17    15    16  ar
    18    20    15  ar
    19    17    16  ar
    20    18    17  ar
    21    19    18  ar
    22    19    20  ar
    23    23    19   1
    24    21    25  ar
    25    26    21  ar
    26    22    23  ar
    27    22    26  ar
    28    23    24  ar
    29    24    25  ar
    30    26    27   1
    31    27    28   1
    32     4    29   1
    33     7    30   1
    34     7    31   1
    35     8    32   1
    36     8    33   1
    37     8    34   1
    38    10    35   1
    39    11    36   1
    40    12    37   1
    41    13    38   1
    42    14    39   1
    43    16    40   1
    44    17    41   1
    45    18    42   1
    46    20    43   1
    47    21    44   1
    48    22    45   1
    49    24    46   1
    50    25    47   1
    51    28    48   1
    52    28    49   1
    53    28    50   1
@<TRIPOS>SUBSTRUCTURE
     1  MOL      2

