@<TRIPOS>MOLECULE
4djv_ligand_009
    50    53
SMALL
GAST_HUCK
****
This file was generated by PARSER (from files_GN.cpp)

@<TRIPOS>ATOM
      1 O1         19.1153   12.1290   24.0114 O.2         1 MOL      -0.3721
      2 C1         19.8193   11.1470   23.8100 C.2         1 MOL       0.1984
      3 C2         20.1633   10.6582   22.4701 C.3         1 MOL       0.1861
      4 N1         21.0908    9.6503   22.8783 N.pl3       1 MOL      -0.2773
      5 C3         21.2730    9.6073   24.1975 C.cat       1 MOL       0.3179
      6 N2         20.4942   10.5361   24.7722 N.am        1 MOL      -0.2211
      7 N3         22.1379    8.7714   24.7900 N.pl3       1 MOL      -0.2550
      8 C4         20.4366   10.7728   26.1849 C.3         1 MOL       0.0234
      9 C5         18.9587   10.0591   21.7702 C.ar        1 MOL      -0.0137
     10 C6         19.0722    8.8868   20.9708 C.ar        1 MOL      -0.0453
     11 C7         17.9817    8.3726   20.2515 C.ar        1 MOL      -0.0390
     12 C8         16.7315    9.0063   20.3267 C.ar        1 MOL      -0.0398
     13 C9         16.5853   10.1658   21.1084 C.ar        1 MOL      -0.0390
     14 C10        17.6874   10.6944   21.8043 C.ar        1 MOL      -0.0453
     15 C11        20.9421   11.6369   21.6063 C.ar        1 MOL      -0.0130
     16 C12        20.9756   11.5032   20.1925 C.ar        1 MOL      -0.0451
     17 C13        21.7262   12.3774   19.3862 C.ar        1 MOL      -0.0383
     18 C14        22.4956   13.3916   19.9782 C.ar        1 MOL      -0.0321
     19 C15        22.5367   13.5450   21.3836 C.ar        1 MOL       0.0021
     20 C16        21.7654   12.6528   22.1682 C.ar        1 MOL      -0.0377
     21 C17        24.9748   16.5440   23.2068 C.ar        1 MOL      -0.0329
     22 C18        22.8997   15.2675   23.1317 C.ar        1 MOL      -0.0254
     23 C19        23.3505   14.5491   21.9943 C.ar        1 MOL      -0.0214
     24 C20        24.6398   14.8496   21.4880 C.ar        1 MOL      -0.0645
     25 C21        25.4426   15.8401   22.0847 C.ar        1 MOL      -0.0697
     26 C22        23.7072   16.2490   23.7456 C.ar        1 MOL       0.0911
     27 O2         23.2238   16.9530   24.8169 O.3         1 MOL      -0.3214
     28 C23        23.8000   16.5602   26.0762 C.3         1 MOL       0.0593
     29 H1         21.5377    9.0356   22.2734 H           1 MOL       0.3068
     30 H2         22.5981    8.1054   24.2554 H           1 MOL       0.3199
     31 H3         22.3279    8.8518   25.7399 H           1 MOL       0.3199
     32 H4         19.7217   11.5507   26.4481 H           1 MOL       0.0484
     33 H5         21.4210   11.0766   26.5439 H           1 MOL       0.0484
     34 H6         20.1384    9.8544   26.6947 H           1 MOL       0.0484
     35 H7         19.9681    8.4048   20.8743 H           1 MOL       0.0795
     36 H8         18.1005    7.5376   19.6705 H           1 MOL       0.0681
     37 H9         15.9335    8.6302   19.8092 H           1 MOL       0.0806
     38 H10        15.6712   10.6247   21.1642 H           1 MOL       0.0681
     39 H11        17.5546   11.5540   22.3412 H           1 MOL       0.0795
     40 H12        20.4495   10.7646   19.7240 H           1 MOL       0.0796
     41 H13        21.7179   12.2718   18.3715 H           1 MOL       0.0682
     42 H14        23.0233   14.0231   19.3684 H           1 MOL       0.0813
     43 H15        21.8304   12.7345   23.1834 H           1 MOL       0.0801
     44 H16        25.5577   17.2677   23.6303 H           1 MOL       0.0545
     45 H17        21.9698   15.0929   23.5178 H           1 MOL       0.0544
     46 H18        25.0149   14.3389   20.6854 H           1 MOL       0.0532
     47 H19        26.3690   16.0442   21.7044 H           1 MOL       0.0590
     48 H20        23.3295   17.1509   26.8627 H           1 MOL       0.0577
     49 H21        24.8746   16.7573   26.0996 H           1 MOL       0.0577
     50 H22        23.6169   15.5035   26.2878 H           1 MOL       0.0577
@<TRIPOS>BOND
     1     2     1   2
     2     3     2   1
     3     2     6  am
     4     3     4   1
     5     3     9   1
     6    15     3   1
     7     4     5  ar
     8     5     6   1
     9     5     7  ar
    10     6     8   1
    11     9    10  ar
    12     9    14  ar
    13    10    11  ar
    14    11    12  ar
    15    13    12  ar
    16    14    13  ar
    17    15    16  ar
    18    20    15  ar
    19    17    16  ar
    20    18    17  ar
    21    19    18  ar
    22    19    20  ar
    23    23    19   1
    24    21    25  ar
    25    26    21  ar
    26    22    23  ar
    27    22    26  ar
    28    23    24  ar
    29    24    25  ar
    30    26    27   1
    31    27    28   1
    32     4    29   1
    33     7    30   1
    34     7    31   1
    35     8    32   1
    36     8    33   1
    37     8    34   1
    38    10    35   1
    39    11    36   1
    40    12    37   1
    41    13    38   1
    42    14    39   1
    43    16    40   1
    44    17    41   1
    45    18    42   1
    46    20    43   1
    47    21    44   1
    48    22    45   1
    49    24    46   1
    50    25    47   1
    51    28    48   1
    52    28    49   1
    53    28    50   1
@<TRIPOS>SUBSTRUCTURE
     1  MOL      2

