@<TRIPOS>MOLECULE
4djv_ligand_042
    50    53
SMALL
GAST_HUCK
****
This file was generated by PARSER (from files_GN.cpp)

@<TRIPOS>ATOM
      1 O1         19.8993   12.5302   23.5260 O.2         1 MOL      -0.3721
      2 C1         20.3876   11.9195   24.4730 C.2         1 MOL       0.1984
      3 C2         21.7732   12.1034   24.9051 C.3         1 MOL       0.1861
      4 N1         21.7567   11.2143   26.0181 N.pl3       1 MOL      -0.2773
      5 C3         20.5666   10.6226   26.1780 C.cat       1 MOL       0.3179
      6 N2         19.7256   11.0631   25.2281 N.am        1 MOL      -0.2211
      7 N3         20.3275    9.7153   27.1404 N.pl3       1 MOL      -0.2550
      8 C4         18.3501   10.6690   25.0949 C.3         1 MOL       0.0234
      9 C5         22.6547   11.6308   23.7698 C.ar        1 MOL      -0.0137
     10 C6         23.0931   10.2832   23.6520 C.ar        1 MOL      -0.0453
     11 C7         23.8706    9.8556   22.5611 C.ar        1 MOL      -0.0390
     12 C8         24.2502   10.7705   21.5660 C.ar        1 MOL      -0.0398
     13 C9         23.8270   12.1085   21.6498 C.ar        1 MOL      -0.0390
     14 C10        23.0215   12.5256   22.7279 C.ar        1 MOL      -0.0453
     15 C11        22.1059   13.4649   25.4764 C.ar        1 MOL      -0.0130
     16 C12        21.1109   14.3925   25.8811 C.ar        1 MOL      -0.0451
     17 C13        21.4487   15.6669   26.3732 C.ar        1 MOL      -0.0383
     18 C14        22.7977   16.0502   26.4643 C.ar        1 MOL      -0.0321
     19 C15        23.8170   15.1479   26.0955 C.ar        1 MOL       0.0021
     20 C16        23.4595   13.8534   25.6483 C.ar        1 MOL      -0.0377
     21 C17        27.8868   16.3541   26.0195 C.ar        1 MOL      -0.0329
     22 C18        25.5872   16.6400   25.2771 C.ar        1 MOL      -0.0254
     23 C19        25.1730   15.5629   26.0994 C.ar        1 MOL      -0.0214
     24 C20        26.1397   14.8866   26.8776 C.ar        1 MOL      -0.0645
     25 C21        27.4885   15.2839   26.8395 C.ar        1 MOL      -0.0697
     26 C22        26.9368   17.0417   25.2392 C.ar        1 MOL       0.0911
     27 O2         27.3381   18.0377   24.3935 O.3         1 MOL      -0.3214
     28 C23        27.1374   19.3593   24.9213 C.3         1 MOL       0.0593
     29 H1         22.5302   10.9974   26.5590 H           1 MOL       0.3068
     30 H2         21.0282    9.4711   27.7694 H           1 MOL       0.3199
     31 H3         19.4736    9.2530   27.1692 H           1 MOL       0.3199
     32 H4         17.8552   11.1764   24.2631 H           1 MOL       0.0484
     33 H5         17.8108   10.9148   26.0105 H           1 MOL       0.0484
     34 H6         18.2852    9.5944   24.9206 H           1 MOL       0.0484
     35 H7         22.8323    9.5855   24.3537 H           1 MOL       0.0795
     36 H8         24.1666    8.8766   22.4950 H           1 MOL       0.0681
     37 H9         24.8236   10.4653   20.7753 H           1 MOL       0.0806
     38 H10        24.1012   12.7774   20.9276 H           1 MOL       0.0681
     39 H11        22.7116   13.4977   22.7502 H           1 MOL       0.0795
     40 H12        20.1188   14.1549   25.8263 H           1 MOL       0.0796
     41 H13        20.7159   16.3275   26.6456 H           1 MOL       0.0682
     42 H14        23.0264   16.9880   26.8059 H           1 MOL       0.0813
     43 H15        24.2037   13.1988   25.3908 H           1 MOL       0.0801
     44 H16        28.8731   16.6282   25.9871 H           1 MOL       0.0545
     45 H17        24.9087   17.1234   24.6826 H           1 MOL       0.0544
     46 H18        25.8645   14.1049   27.4762 H           1 MOL       0.0532
     47 H19        28.1814   14.7853   27.4044 H           1 MOL       0.0590
     48 H20        27.4853   20.0789   24.1794 H           1 MOL       0.0577
     49 H21        27.7104   19.5114   25.8392 H           1 MOL       0.0577
     50 H22        26.0797   19.5573   25.1144 H           1 MOL       0.0577
@<TRIPOS>BOND
     1     2     1   2
     2     3     2   1
     3     2     6  am
     4     3     4   1
     5     3     9   1
     6    15     3   1
     7     4     5  ar
     8     5     6   1
     9     5     7  ar
    10     6     8   1
    11     9    10  ar
    12     9    14  ar
    13    10    11  ar
    14    11    12  ar
    15    13    12  ar
    16    14    13  ar
    17    15    16  ar
    18    20    15  ar
    19    17    16  ar
    20    18    17  ar
    21    19    18  ar
    22    19    20  ar
    23    23    19   1
    24    21    25  ar
    25    26    21  ar
    26    22    23  ar
    27    22    26  ar
    28    23    24  ar
    29    24    25  ar
    30    26    27   1
    31    27    28   1
    32     4    29   1
    33     7    30   1
    34     7    31   1
    35     8    32   1
    36     8    33   1
    37     8    34   1
    38    10    35   1
    39    11    36   1
    40    12    37   1
    41    13    38   1
    42    14    39   1
    43    16    40   1
    44    17    41   1
    45    18    42   1
    46    20    43   1
    47    21    44   1
    48    22    45   1
    49    24    46   1
    50    25    47   1
    51    28    48   1
    52    28    49   1
    53    28    50   1
@<TRIPOS>SUBSTRUCTURE
     1  MOL      2

