@<TRIPOS>MOLECULE
4djv_ligand_005
    50    53
SMALL
GAST_HUCK
****
This file was generated by PARSER (from files_GN.cpp)

@<TRIPOS>ATOM
      1 O1         16.8689   10.2681   19.5159 O.2         1 MOL      -0.3721
      2 C1         16.3993    9.6871   20.4840 C.2         1 MOL       0.1984
      3 C2         16.7659    9.9817   21.8778 C.3         1 MOL       0.1861
      4 N1         15.9676    8.9583   22.4732 N.pl3       1 MOL      -0.2773
      5 C3         15.2621    8.2441   21.5878 C.cat       1 MOL       0.3179
      6 N2         15.5569    8.6754   20.3591 N.am        1 MOL      -0.2211
      7 N3         14.3930    7.2623   21.9000 N.pl3       1 MOL      -0.2550
      8 C4         15.0410    8.0796   19.1564 C.3         1 MOL       0.0234
      9 C5         18.2163    9.6978   22.2371 C.ar        1 MOL      -0.0137
     10 C6         19.1975    9.2809   21.2847 C.ar        1 MOL      -0.0453
     11 C7         20.5282    9.0119   21.6590 C.ar        1 MOL      -0.0390
     12 C8         20.9297    9.1558   22.9973 C.ar        1 MOL      -0.0398
     13 C9         19.9893    9.5329   23.9640 C.ar        1 MOL      -0.0390
     14 C10        18.6556    9.7735   23.5889 C.ar        1 MOL      -0.0453
     15 C11        16.2799   11.3421   22.3679 C.ar        1 MOL      -0.0130
     16 C12        16.1921   12.4813   21.5222 C.ar        1 MOL      -0.0451
     17 C13        15.6944   13.7168   21.9793 C.ar        1 MOL      -0.0383
     18 C14        15.3367   13.8802   23.3258 C.ar        1 MOL      -0.0321
     19 C15        15.4674   12.8013   24.2199 C.ar        1 MOL       0.0021
     20 C16        15.8884   11.5461   23.7269 C.ar        1 MOL      -0.0377
     21 C17        14.6814   13.4986   28.3291 C.ar        1 MOL      -0.0329
     22 C18        16.2567   13.3648   26.4736 C.ar        1 MOL      -0.0254
     23 C19        15.2078   13.0000   25.5951 C.ar        1 MOL      -0.0214
     24 C20        13.8940   12.8903   26.1017 C.ar        1 MOL      -0.0645
     25 C21        13.6316   13.1397   27.4626 C.ar        1 MOL      -0.0697
     26 C22        16.0004   13.5984   27.8412 C.ar        1 MOL       0.0911
     27 O2         17.0171   13.9601   28.6831 O.3         1 MOL      -0.3214
     28 C23        17.6526   12.8331   29.3122 C.3         1 MOL       0.0593
     29 H1         15.9351    8.7916   23.4302 H           1 MOL       0.3068
     30 H2         14.1751    7.0802   22.8195 H           1 MOL       0.3199
     31 H3         13.9261    6.8002   21.1883 H           1 MOL       0.3199
     32 H4         15.3962    8.5862   18.2615 H           1 MOL       0.0484
     33 H5         13.9506    8.1154   19.1520 H           1 MOL       0.0484
     34 H6         15.3629    7.0389   19.1046 H           1 MOL       0.0484
     35 H7         18.9480    9.1418   20.3026 H           1 MOL       0.0795
     36 H8         21.2076    8.7061   20.9604 H           1 MOL       0.0681
     37 H9         21.9005    8.9707   23.2707 H           1 MOL       0.0806
     38 H10        20.2669    9.6194   24.9435 H           1 MOL       0.0681
     39 H11        18.0036    9.9912   24.3352 H           1 MOL       0.0795
     40 H12        16.4836   12.4398   20.5481 H           1 MOL       0.0796
     41 H13        15.6125   14.5051   21.3342 H           1 MOL       0.0682
     42 H14        14.9973   14.7896   23.6476 H           1 MOL       0.0813
     43 H15        15.9124   10.7636   24.3857 H           1 MOL       0.0801
     44 H16        14.4846   13.6823   29.3149 H           1 MOL       0.0545
     45 H17        17.2128   13.4670   26.1222 H           1 MOL       0.0544
     46 H18        13.1189   12.6394   25.4826 H           1 MOL       0.0532
     47 H19        12.6784   13.0663   27.8204 H           1 MOL       0.0590
     48 H20        18.4433   13.2076   29.9631 H           1 MOL       0.0577
     49 H21        18.1055   12.1668   28.5734 H           1 MOL       0.0577
     50 H22        16.9463   12.2696   29.9270 H           1 MOL       0.0577
@<TRIPOS>BOND
     1     2     1   2
     2     3     2   1
     3     2     6  am
     4     3     4   1
     5     3     9   1
     6    15     3   1
     7     4     5  ar
     8     5     6   1
     9     5     7  ar
    10     6     8   1
    11     9    10  ar
    12     9    14  ar
    13    10    11  ar
    14    11    12  ar
    15    13    12  ar
    16    14    13  ar
    17    15    16  ar
    18    20    15  ar
    19    17    16  ar
    20    18    17  ar
    21    19    18  ar
    22    19    20  ar
    23    23    19   1
    24    21    25  ar
    25    26    21  ar
    26    22    23  ar
    27    22    26  ar
    28    23    24  ar
    29    24    25  ar
    30    26    27   1
    31    27    28   1
    32     4    29   1
    33     7    30   1
    34     7    31   1
    35     8    32   1
    36     8    33   1
    37     8    34   1
    38    10    35   1
    39    11    36   1
    40    12    37   1
    41    13    38   1
    42    14    39   1
    43    16    40   1
    44    17    41   1
    45    18    42   1
    46    20    43   1
    47    21    44   1
    48    22    45   1
    49    24    46   1
    50    25    47   1
    51    28    48   1
    52    28    49   1
    53    28    50   1
@<TRIPOS>SUBSTRUCTURE
     1  MOL      2

