@<TRIPOS>MOLECULE
4djv_ligand_024
    50    53
SMALL
GAST_HUCK
****
This file was generated by PARSER (from files_GN.cpp)

@<TRIPOS>ATOM
      1 O1         16.3059   10.8670   20.6483 O.2         1 MOL      -0.3721
      2 C1         16.0044    9.9153   21.3569 C.2         1 MOL       0.1984
      3 C2         16.4206    9.7800   22.7522 C.3         1 MOL       0.1861
      4 N1         15.9072    8.4661   22.9769 N.pl3       1 MOL      -0.2773
      5 C3         15.2598    7.9764   21.9112 C.cat       1 MOL       0.3179
      6 N2         15.3837    8.8356   20.8921 N.am        1 MOL      -0.2211
      7 N3         14.5893    6.8125   21.9156 N.pl3       1 MOL      -0.2550
      8 C4         14.9530    8.5852   19.5508 C.3         1 MOL       0.0234
      9 C5         17.9200    9.7187   22.9492 C.ar        1 MOL      -0.0137
     10 C6         18.8038    9.3953   21.8839 C.ar        1 MOL      -0.0453
     11 C7         20.1974    9.2951   22.0851 C.ar        1 MOL      -0.0390
     12 C8         20.7390    9.5045   23.3605 C.ar        1 MOL      -0.0398
     13 C9         19.8863    9.7990   24.4414 C.ar        1 MOL      -0.0390
     14 C10        18.4996    9.8858   24.2323 C.ar        1 MOL      -0.0453
     15 C11        15.7125   10.8065   23.6119 C.ar        1 MOL      -0.0130
     16 C12        14.9229   10.4470   24.7311 C.ar        1 MOL      -0.0451
     17 C13        14.2169   11.4128   25.4744 C.ar        1 MOL      -0.0383
     18 C14        14.2702   12.7648   25.0995 C.ar        1 MOL      -0.0321
     19 C15        15.0820   13.1676   24.0202 C.ar        1 MOL       0.0021
     20 C16        15.8304   12.1916   23.3210 C.ar        1 MOL      -0.0377
     21 C17        15.2521   17.2768   22.9872 C.ar        1 MOL      -0.0329
     22 C18        16.3259   15.2699   23.8548 C.ar        1 MOL      -0.0254
     23 C19        15.1407   14.5298   23.6451 C.ar        1 MOL      -0.0214
     24 C20        14.0141   15.1794   23.0906 C.ar        1 MOL      -0.0645
     25 C21        14.0778   16.5442   22.7467 C.ar        1 MOL      -0.0697
     26 C22        16.3696   16.6530   23.5685 C.ar        1 MOL       0.0911
     27 O2         17.4935   17.3917   23.8242 O.3         1 MOL      -0.3214
     28 C23        17.7338   17.6042   25.2289 C.3         1 MOL       0.0593
     29 H1         15.9441    8.0024   23.8291 H           1 MOL       0.3068
     30 H2         14.5144    6.2960   22.7315 H           1 MOL       0.3199
     31 H3         14.1295    6.5213   21.1145 H           1 MOL       0.3199
     32 H4         15.2221    9.3919   18.8674 H           1 MOL       0.0484
     33 H5         13.8701    8.4548   19.5146 H           1 MOL       0.0484
     34 H6         15.4284    7.6690   19.1912 H           1 MOL       0.0484
     35 H7         18.4474    9.2077   20.9521 H           1 MOL       0.0795
     36 H8         20.8135    9.0673   21.2974 H           1 MOL       0.0681
     37 H9         21.7501    9.4482   23.5017 H           1 MOL       0.0806
     38 H10        20.2827    9.9471   25.3697 H           1 MOL       0.0681
     39 H11        17.9044   10.0738   25.0494 H           1 MOL       0.0795
     40 H12        14.8455    9.4812   25.0341 H           1 MOL       0.0796
     41 H13        13.6492   11.1299   26.2798 H           1 MOL       0.0682
     42 H14        13.7252   13.4510   25.6298 H           1 MOL       0.0813
     43 H15        16.4462   12.4974   22.5579 H           1 MOL       0.0801
     44 H16        15.2905   18.2660   22.7438 H           1 MOL       0.0545
     45 H17        17.1513   14.8125   24.2551 H           1 MOL       0.0544
     46 H18        13.1446   14.6624   22.9270 H           1 MOL       0.0532
     47 H19        13.2632   17.0023   22.3317 H           1 MOL       0.0590
     48 H20        18.6147   18.2357   25.3370 H           1 MOL       0.0577
     49 H21        17.9297   16.6623   25.7453 H           1 MOL       0.0577
     50 H22        16.8895   18.1086   25.7035 H           1 MOL       0.0577
@<TRIPOS>BOND
     1     2     1   2
     2     3     2   1
     3     2     6  am
     4     3     4   1
     5     3     9   1
     6    15     3   1
     7     4     5  ar
     8     5     6   1
     9     5     7  ar
    10     6     8   1
    11     9    10  ar
    12     9    14  ar
    13    10    11  ar
    14    11    12  ar
    15    13    12  ar
    16    14    13  ar
    17    15    16  ar
    18    20    15  ar
    19    17    16  ar
    20    18    17  ar
    21    19    18  ar
    22    19    20  ar
    23    23    19   1
    24    21    25  ar
    25    26    21  ar
    26    22    23  ar
    27    22    26  ar
    28    23    24  ar
    29    24    25  ar
    30    26    27   1
    31    27    28   1
    32     4    29   1
    33     7    30   1
    34     7    31   1
    35     8    32   1
    36     8    33   1
    37     8    34   1
    38    10    35   1
    39    11    36   1
    40    12    37   1
    41    13    38   1
    42    14    39   1
    43    16    40   1
    44    17    41   1
    45    18    42   1
    46    20    43   1
    47    21    44   1
    48    22    45   1
    49    24    46   1
    50    25    47   1
    51    28    48   1
    52    28    49   1
    53    28    50   1
@<TRIPOS>SUBSTRUCTURE
     1  MOL      2

