@<TRIPOS>MOLECULE
4djv_ligand_048
    50    53
SMALL
GAST_HUCK
****
This file was generated by PARSER (from files_GN.cpp)

@<TRIPOS>ATOM
      1 O1         16.5918    7.8620   23.4001 O.2         1 MOL      -0.3721
      2 C1         16.0637    8.7448   22.7294 C.2         1 MOL       0.1984
      3 C2         15.9165   10.1488   23.1519 C.3         1 MOL       0.1861
      4 N1         15.2119   10.5753   21.9809 N.pl3       1 MOL      -0.2773
      5 C3         15.0093    9.6097   21.0831 C.cat       1 MOL       0.3179
      6 N2         15.5612    8.4806   21.5415 N.am        1 MOL      -0.2211
      7 N3         14.3627    9.7857   19.9246 N.pl3       1 MOL      -0.2550
      8 C4         15.5641    7.2372   20.8301 C.3         1 MOL       0.0234
      9 C5         15.0403   10.3485   24.3807 C.ar        1 MOL      -0.0137
     10 C6         15.1198    9.5031   25.5170 C.ar        1 MOL      -0.0453
     11 C7         14.2607    9.6488   26.6206 C.ar        1 MOL      -0.0390
     12 C8         13.3334   10.6974   26.6460 C.ar        1 MOL      -0.0398
     13 C9         13.2592   11.5895   25.5659 C.ar        1 MOL      -0.0390
     14 C10        14.0946   11.4051   24.4499 C.ar        1 MOL      -0.0453
     15 C11        17.1921   10.9593   23.2440 C.ar        1 MOL      -0.0130
     16 C12        17.1399   12.3799   23.2284 C.ar        1 MOL      -0.0451
     17 C13        18.3022   13.1654   23.1883 C.ar        1 MOL      -0.0383
     18 C14        19.5626   12.5485   23.1619 C.ar        1 MOL      -0.0321
     19 C15        19.6638   11.1452   23.2115 C.ar        1 MOL       0.0021
     20 C16        18.4842   10.3666   23.2665 C.ar        1 MOL      -0.0377
     21 C17        23.3363    9.0702   22.8478 C.ar        1 MOL      -0.0329
     22 C18        21.6043   10.4826   21.8798 C.ar        1 MOL      -0.0254
     23 C19        20.9218   10.5051   23.1159 C.ar        1 MOL      -0.0214
     24 C20        21.4670    9.8143   24.2207 C.ar        1 MOL      -0.0645
     25 C21        22.6781    9.1100   24.0892 C.ar        1 MOL      -0.0697
     26 C22        22.7975    9.7378   21.7316 C.ar        1 MOL       0.0911
     27 O2         23.4613    9.6937   20.5343 O.3         1 MOL      -0.3214
     28 C23        22.8974    8.7766   19.5776 C.3         1 MOL       0.0593
     29 H1         14.9444   11.4942   21.8197 H           1 MOL       0.3068
     30 H2         13.9557   10.6433   19.7332 H           1 MOL       0.3199
     31 H3         14.2347    9.0443   19.3101 H           1 MOL       0.3199
     32 H4         16.1340    6.4669   21.3510 H           1 MOL       0.0484
     33 H5         16.0123    7.3668   19.8433 H           1 MOL       0.0484
     34 H6         14.5409    6.8800   20.7122 H           1 MOL       0.0484
     35 H7         15.8030    8.7533   25.5813 H           1 MOL       0.0795
     36 H8         14.3311    9.0022   27.4099 H           1 MOL       0.0681
     37 H9         12.7252   10.8089   27.4518 H           1 MOL       0.0806
     38 H10        12.5975   12.3657   25.5894 H           1 MOL       0.0681
     39 H11        13.9851   12.0611   23.6774 H           1 MOL       0.0795
     40 H12        16.2449   12.8682   23.1936 H           1 MOL       0.0796
     41 H13        18.2278   14.1852   23.1500 H           1 MOL       0.0682
     42 H14        20.4030   13.1302   23.1152 H           1 MOL       0.0813
     43 H15        18.5846    9.3526   23.2721 H           1 MOL       0.0801
     44 H16        24.2065    8.5404   22.7546 H           1 MOL       0.0545
     45 H17        21.2153   10.9663   21.0670 H           1 MOL       0.0544
     46 H18        20.9937    9.8313   25.1282 H           1 MOL       0.0532
     47 H19        23.0744    8.6201   24.8954 H           1 MOL       0.0590
     48 H20        23.5369    8.7748   18.6948 H           1 MOL       0.0577
     49 H21        21.8967    9.0883   19.2695 H           1 MOL       0.0577
     50 H22        22.8579    7.7573   19.9704 H           1 MOL       0.0577
@<TRIPOS>BOND
     1     2     1   2
     2     3     2   1
     3     2     6  am
     4     3     4   1
     5     3     9   1
     6    15     3   1
     7     4     5  ar
     8     5     6   1
     9     5     7  ar
    10     6     8   1
    11     9    10  ar
    12     9    14  ar
    13    10    11  ar
    14    11    12  ar
    15    13    12  ar
    16    14    13  ar
    17    15    16  ar
    18    20    15  ar
    19    17    16  ar
    20    18    17  ar
    21    19    18  ar
    22    19    20  ar
    23    23    19   1
    24    21    25  ar
    25    26    21  ar
    26    22    23  ar
    27    22    26  ar
    28    23    24  ar
    29    24    25  ar
    30    26    27   1
    31    27    28   1
    32     4    29   1
    33     7    30   1
    34     7    31   1
    35     8    32   1
    36     8    33   1
    37     8    34   1
    38    10    35   1
    39    11    36   1
    40    12    37   1
    41    13    38   1
    42    14    39   1
    43    16    40   1
    44    17    41   1
    45    18    42   1
    46    20    43   1
    47    21    44   1
    48    22    45   1
    49    24    46   1
    50    25    47   1
    51    28    48   1
    52    28    49   1
    53    28    50   1
@<TRIPOS>SUBSTRUCTURE
     1  MOL      2

