@<TRIPOS>MOLECULE
4djv_ligand_016
    50    53
SMALL
GAST_HUCK
****
This file was generated by PARSER (from files_GN.cpp)

@<TRIPOS>ATOM
      1 O1         16.4266   11.2911   21.5416 O.2         1 MOL      -0.3721
      2 C1         16.6067   10.3762   22.3388 C.2         1 MOL       0.1984
      3 C2         17.7805   10.3088   23.2121 C.3         1 MOL       0.1861
      4 N1         17.3961    9.1642   23.9726 N.pl3       1 MOL      -0.2773
      5 C3         16.2238    8.6544   23.5786 C.cat       1 MOL       0.3179
      6 N2         15.7509    9.3942   22.5651 N.am        1 MOL      -0.2211
      7 N3         15.6459    7.5821   24.1472 N.pl3       1 MOL      -0.2550
      8 C4         14.5165    9.1327   21.8908 C.3         1 MOL       0.0234
      9 C5         19.0629    9.9281   22.5059 C.ar        1 MOL      -0.0137
     10 C6         19.2048    9.8827   21.0908 C.ar        1 MOL      -0.0453
     11 C7         20.4328    9.5563   20.4821 C.ar        1 MOL      -0.0390
     12 C8         21.5550    9.2688   21.2777 C.ar        1 MOL      -0.0398
     13 C9         21.4352    9.2634   22.6768 C.ar        1 MOL      -0.0390
     14 C10        20.2009    9.5687   23.2777 C.ar        1 MOL      -0.0453
     15 C11        17.8304   11.5344   24.1059 C.ar        1 MOL      -0.0130
     16 C12        18.9722   12.3696   24.2242 C.ar        1 MOL      -0.0451
     17 C13        18.9959   13.4658   25.1045 C.ar        1 MOL      -0.0383
     18 C14        17.8549   13.7943   25.8527 C.ar        1 MOL      -0.0321
     19 C15        16.6702   13.0423   25.7088 C.ar        1 MOL       0.0021
     20 C16        16.6861   11.9097   24.8617 C.ar        1 MOL      -0.0377
     21 C17        13.0821   14.1442   27.7057 C.ar        1 MOL      -0.0329
     22 C18        15.4140   13.4453   27.7962 C.ar        1 MOL      -0.0254
     23 C19        15.4816   13.4292   26.3819 C.ar        1 MOL      -0.0214
     24 C20        14.3310   13.8011   25.6430 C.ar        1 MOL      -0.0645
     25 C21        13.1475   14.1788   26.3017 C.ar        1 MOL      -0.0697
     26 C22        14.2061   13.7537   28.4588 C.ar        1 MOL       0.0911
     27 O2         14.1086   13.7388   29.8235 O.3         1 MOL      -0.3214
     28 C23        14.3116   12.4495   30.4333 C.3         1 MOL       0.0593
     29 H1         17.9353    8.7804   24.6813 H           1 MOL       0.3068
     30 H2         16.0906    7.1209   24.8758 H           1 MOL       0.3199
     31 H3         14.7629    7.2922   23.8611 H           1 MOL       0.3199
     32 H4         14.3405    9.8315   21.0695 H           1 MOL       0.0484
     33 H5         13.6878    9.2109   22.5992 H           1 MOL       0.0484
     34 H6         14.5326    8.1210   21.4772 H           1 MOL       0.0484
     35 H7         18.4117   10.0860   20.4779 H           1 MOL       0.0795
     36 H8         20.5079    9.5297   19.4603 H           1 MOL       0.0681
     37 H9         22.4502    9.0496   20.8399 H           1 MOL       0.0806
     38 H10        22.2396    9.0153   23.2525 H           1 MOL       0.0681
     39 H11        20.1439    9.5463   24.2961 H           1 MOL       0.0795
     40 H12        19.8106   12.1969   23.6712 H           1 MOL       0.0796
     41 H13        19.8421   14.0339   25.1903 H           1 MOL       0.0682
     42 H14        17.8842   14.6068   26.4767 H           1 MOL       0.0813
     43 H15        15.8312   11.3519   24.7909 H           1 MOL       0.0801
     44 H16        12.2174   14.4112   28.1777 H           1 MOL       0.0545
     45 H17        16.2384   13.2075   28.3529 H           1 MOL       0.0544
     46 H18        14.3537   13.8202   24.6190 H           1 MOL       0.0532
     47 H19        12.3317   14.4726   25.7592 H           1 MOL       0.0590
     48 H20        13.9801   12.5132   31.4669 H           1 MOL       0.0577
     49 H21        15.3728   12.1836   30.4299 H           1 MOL       0.0577
     50 H22        13.7384   11.6591   29.9383 H           1 MOL       0.0577
@<TRIPOS>BOND
     1     2     1   2
     2     3     2   1
     3     2     6  am
     4     3     4   1
     5     3     9   1
     6    15     3   1
     7     4     5  ar
     8     5     6   1
     9     5     7  ar
    10     6     8   1
    11     9    10  ar
    12     9    14  ar
    13    10    11  ar
    14    11    12  ar
    15    13    12  ar
    16    14    13  ar
    17    15    16  ar
    18    20    15  ar
    19    17    16  ar
    20    18    17  ar
    21    19    18  ar
    22    19    20  ar
    23    23    19   1
    24    21    25  ar
    25    26    21  ar
    26    22    23  ar
    27    22    26  ar
    28    23    24  ar
    29    24    25  ar
    30    26    27   1
    31    27    28   1
    32     4    29   1
    33     7    30   1
    34     7    31   1
    35     8    32   1
    36     8    33   1
    37     8    34   1
    38    10    35   1
    39    11    36   1
    40    12    37   1
    41    13    38   1
    42    14    39   1
    43    16    40   1
    44    17    41   1
    45    18    42   1
    46    20    43   1
    47    21    44   1
    48    22    45   1
    49    24    46   1
    50    25    47   1
    51    28    48   1
    52    28    49   1
    53    28    50   1
@<TRIPOS>SUBSTRUCTURE
     1  MOL      2

