@<TRIPOS>MOLECULE
4djv_ligand_052
    50    53
SMALL
GAST_HUCK
****
This file was generated by PARSER (from files_GN.cpp)

@<TRIPOS>ATOM
      1 O1         17.7980   10.6512   26.0748 O.2         1 MOL      -0.3721
      2 C1         16.9984   10.7137   25.1448 C.2         1 MOL       0.1984
      3 C2         17.2482   11.4478   23.8970 C.3         1 MOL       0.1861
      4 N1         15.9488   11.3624   23.3308 N.pl3       1 MOL      -0.2773
      5 C3         15.1488   10.5574   24.0381 C.cat       1 MOL       0.3179
      6 N2         15.7944   10.1508   25.1433 N.am        1 MOL      -0.2211
      7 N3         13.9186   10.2335   23.6248 N.pl3       1 MOL      -0.2550
      8 C4         15.2155    9.2568   26.1043 C.3         1 MOL       0.0234
      9 C5         17.4857   12.9364   24.0613 C.ar        1 MOL      -0.0137
     10 C6         18.4971   13.6355   23.3143 C.ar        1 MOL      -0.0453
     11 C7         18.6926   15.0271   23.4669 C.ar        1 MOL      -0.0390
     12 C8         17.8676   15.7940   24.3148 C.ar        1 MOL      -0.0398
     13 C9         16.8381   15.1349   25.0397 C.ar        1 MOL      -0.0390
     14 C10        16.6613   13.7372   24.9167 C.ar        1 MOL      -0.0453
     15 C11        18.2594   10.6383   23.0913 C.ar        1 MOL      -0.0130
     16 C12        19.6410   10.7111   23.4058 C.ar        1 MOL      -0.0451
     17 C13        20.6009   10.0090   22.6708 C.ar        1 MOL      -0.0383
     18 C14        20.2018    9.1723   21.6187 C.ar        1 MOL      -0.0321
     19 C15        18.8344    9.0042   21.2988 C.ar        1 MOL       0.0021
     20 C16        17.8896    9.7530   22.0403 C.ar        1 MOL      -0.0377
     21 C17        17.4151    6.0883   18.5155 C.ar        1 MOL      -0.0329
     22 C18        17.2306    8.2970   19.5379 C.ar        1 MOL      -0.0254
     23 C19        18.3992    8.0698   20.3064 C.ar        1 MOL      -0.0214
     24 C20        19.0849    6.8361   20.1256 C.ar        1 MOL      -0.0645
     25 C21        18.5970    5.8587   19.2393 C.ar        1 MOL      -0.0697
     26 C22        16.7145    7.3025   18.6821 C.ar        1 MOL       0.0911
     27 O2         15.5816    7.5195   17.9491 O.3         1 MOL      -0.3214
     28 C23        14.3934    7.8348   18.7032 C.3         1 MOL       0.0593
     29 H1         15.7005   11.7759   22.4835 H           1 MOL       0.3068
     30 H2         13.5633   10.6195   22.7911 H           1 MOL       0.3199
     31 H3         13.3422    9.6549   24.1478 H           1 MOL       0.3199
     32 H4         15.9316    8.9612   26.8637 H           1 MOL       0.0484
     33 H5         14.8759    8.3386   25.6196 H           1 MOL       0.0484
     34 H6         14.3665    9.7405   26.5870 H           1 MOL       0.0484
     35 H7         19.1001   13.1461   22.6362 H           1 MOL       0.0795
     36 H8         19.4309   15.4985   22.9219 H           1 MOL       0.0681
     37 H9         17.9881   16.8187   24.3727 H           1 MOL       0.0806
     38 H10        16.2257   15.6831   25.6553 H           1 MOL       0.0681
     39 H11        15.8987   13.3144   25.4561 H           1 MOL       0.0795
     40 H12        19.9473   11.3174   24.1706 H           1 MOL       0.0796
     41 H13        21.5959   10.1362   22.8704 H           1 MOL       0.0682
     42 H14        20.9245    8.6907   21.0869 H           1 MOL       0.0813
     43 H15        16.8927    9.6151   21.8468 H           1 MOL       0.0801
     44 H16        17.0720    5.3737   17.8641 H           1 MOL       0.0545
     45 H17        16.7256    9.1802   19.5918 H           1 MOL       0.0544
     46 H18        19.9138    6.6042   20.6782 H           1 MOL       0.0532
     47 H19        19.0955    4.9788   19.1476 H           1 MOL       0.0590
     48 H20        13.5336    7.7253   18.0425 H           1 MOL       0.0577
     49 H21        14.4127    8.8755   19.0421 H           1 MOL       0.0577
     50 H22        14.2537    7.1857   19.5721 H           1 MOL       0.0577
@<TRIPOS>BOND
     1     2     1   2
     2     3     2   1
     3     2     6  am
     4     3     4   1
     5     3     9   1
     6    15     3   1
     7     4     5  ar
     8     5     6   1
     9     5     7  ar
    10     6     8   1
    11     9    10  ar
    12     9    14  ar
    13    10    11  ar
    14    11    12  ar
    15    13    12  ar
    16    14    13  ar
    17    15    16  ar
    18    20    15  ar
    19    17    16  ar
    20    18    17  ar
    21    19    18  ar
    22    19    20  ar
    23    23    19   1
    24    21    25  ar
    25    26    21  ar
    26    22    23  ar
    27    22    26  ar
    28    23    24  ar
    29    24    25  ar
    30    26    27   1
    31    27    28   1
    32     4    29   1
    33     7    30   1
    34     7    31   1
    35     8    32   1
    36     8    33   1
    37     8    34   1
    38    10    35   1
    39    11    36   1
    40    12    37   1
    41    13    38   1
    42    14    39   1
    43    16    40   1
    44    17    41   1
    45    18    42   1
    46    20    43   1
    47    21    44   1
    48    22    45   1
    49    24    46   1
    50    25    47   1
    51    28    48   1
    52    28    49   1
    53    28    50   1
@<TRIPOS>SUBSTRUCTURE
     1  MOL      2

