@<TRIPOS>MOLECULE
4djv_ligand_036
    50    53
SMALL
GAST_HUCK
****
This file was generated by PARSER (from files_GN.cpp)

@<TRIPOS>ATOM
      1 O1         19.3646    9.2218   22.0769 O.2         1 MOL      -0.3721
      2 C1         18.7222   10.0071   21.3904 C.2         1 MOL       0.1984
      3 C2         17.4310   10.5504   21.8067 C.3         1 MOL       0.1861
      4 N1         17.2297   11.4431   20.7137 N.pl3       1 MOL      -0.2773
      5 C3         18.2192   11.3887   19.8143 C.cat       1 MOL       0.3179
      6 N2         19.1412   10.5076   20.2403 N.am        1 MOL      -0.2211
      7 N3         18.2315   12.1008   18.6753 N.pl3       1 MOL      -0.2550
      8 C4         20.3641   10.2030   19.5588 C.3         1 MOL       0.0234
      9 C5         16.4416    9.3995   21.8144 C.ar        1 MOL      -0.0137
     10 C6         16.2887    8.5801   22.9655 C.ar        1 MOL      -0.0453
     11 C7         15.3554    7.5263   22.9880 C.ar        1 MOL      -0.0390
     12 C8         14.6060    7.2196   21.8441 C.ar        1 MOL      -0.0398
     13 C9         14.7785    7.9745   20.6727 C.ar        1 MOL      -0.0390
     14 C10        15.6879    9.0486   20.6610 C.ar        1 MOL      -0.0453
     15 C11        17.4638   11.4337   23.0391 C.ar        1 MOL      -0.0130
     16 C12        16.2912   11.6599   23.8054 C.ar        1 MOL      -0.0451
     17 C13        16.3115   12.4668   24.9560 C.ar        1 MOL      -0.0383
     18 C14        17.4876   13.1311   25.3312 C.ar        1 MOL      -0.0321
     19 C15        18.6604   12.9771   24.5644 C.ar        1 MOL       0.0021
     20 C16        18.6363   12.1299   23.4330 C.ar        1 MOL      -0.0377
     21 C17        22.1684   15.1793   25.4519 C.ar        1 MOL      -0.0329
     22 C18        19.8088   15.1182   24.8654 C.ar        1 MOL      -0.0254
     23 C19        19.8310   13.7026   24.8799 C.ar        1 MOL      -0.0214
     24 C20        21.0385   13.0356   25.1904 C.ar        1 MOL      -0.0645
     25 C21        22.1958   13.7718   25.4931 C.ar        1 MOL      -0.0697
     26 C22        20.9799   15.8584   25.1174 C.ar        1 MOL       0.0911
     27 O2         20.9775   17.2306   25.0708 O.3         1 MOL      -0.3214
     28 C23        20.9338   17.7760   23.7384 C.3         1 MOL       0.0593
     29 H1         16.4375   11.9974   20.6109 H           1 MOL       0.3068
     30 H2         17.4934   12.6965   18.4710 H           1 MOL       0.3199
     31 H3         18.9813   12.0321   18.0647 H           1 MOL       0.3199
     32 H4         20.9689    9.4714   20.0975 H           1 MOL       0.0484
     33 H5         20.9552   11.1138   19.4441 H           1 MOL       0.0484
     34 H6         20.1391    9.7965   18.5707 H           1 MOL       0.0484
     35 H7         16.8369    8.7677   23.8088 H           1 MOL       0.0795
     36 H8         15.2340    6.9706   23.8384 H           1 MOL       0.0681
     37 H9         13.9357    6.4479   21.8559 H           1 MOL       0.0806
     38 H10        14.2416    7.7540   19.8327 H           1 MOL       0.0681
     39 H11        15.7849    9.5727   19.7894 H           1 MOL       0.0795
     40 H12        15.4064   11.2210   23.5385 H           1 MOL       0.0796
     41 H13        15.4617   12.5978   25.5064 H           1 MOL       0.0682
     42 H14        17.4779   13.7520   26.1455 H           1 MOL       0.0813
     43 H15        19.4864   12.0405   22.8715 H           1 MOL       0.0801
     44 H16        23.0204   15.7029   25.6644 H           1 MOL       0.0545
     45 H17        18.9488   15.6264   24.6404 H           1 MOL       0.0544
     46 H18        21.0757   12.0137   25.2198 H           1 MOL       0.0532
     47 H19        23.0586   13.2796   25.7413 H           1 MOL       0.0590
     48 H20        21.0335   18.8564   23.8172 H           1 MOL       0.0577
     49 H21        19.9830   17.5537   23.2516 H           1 MOL       0.0577
     50 H22        21.7525   17.4100   23.1202 H           1 MOL       0.0577
@<TRIPOS>BOND
     1     2     1   2
     2     3     2   1
     3     2     6  am
     4     3     4   1
     5     3     9   1
     6    15     3   1
     7     4     5  ar
     8     5     6   1
     9     5     7  ar
    10     6     8   1
    11     9    10  ar
    12     9    14  ar
    13    10    11  ar
    14    11    12  ar
    15    13    12  ar
    16    14    13  ar
    17    15    16  ar
    18    20    15  ar
    19    17    16  ar
    20    18    17  ar
    21    19    18  ar
    22    19    20  ar
    23    23    19   1
    24    21    25  ar
    25    26    21  ar
    26    22    23  ar
    27    22    26  ar
    28    23    24  ar
    29    24    25  ar
    30    26    27   1
    31    27    28   1
    32     4    29   1
    33     7    30   1
    34     7    31   1
    35     8    32   1
    36     8    33   1
    37     8    34   1
    38    10    35   1
    39    11    36   1
    40    12    37   1
    41    13    38   1
    42    14    39   1
    43    16    40   1
    44    17    41   1
    45    18    42   1
    46    20    43   1
    47    21    44   1
    48    22    45   1
    49    24    46   1
    50    25    47   1
    51    28    48   1
    52    28    49   1
    53    28    50   1
@<TRIPOS>SUBSTRUCTURE
     1  MOL      2

