@<TRIPOS>MOLECULE
4djv_ligand_049
    50    53
SMALL
GAST_HUCK
****
This file was generated by PARSER (from files_GN.cpp)

@<TRIPOS>ATOM
      1 O1         20.6875   12.7321   20.6305 O.2         1 MOL      -0.3721
      2 C1         20.3585   11.5509   20.6539 C.2         1 MOL       0.1984
      3 C2         20.7408   10.6501   21.7323 C.3         1 MOL       0.1861
      4 N1         20.0613    9.4805   21.2781 N.pl3       1 MOL      -0.2773
      5 C3         19.4566    9.6726   20.0997 C.cat       1 MOL       0.3179
      6 N2         19.6331   10.9499   19.7259 N.am        1 MOL      -0.2211
      7 N3         18.8177    8.7003   19.4267 N.pl3       1 MOL      -0.2550
      8 C4         19.1028   11.5307   18.5326 C.3         1 MOL       0.0234
      9 C5         22.1978   10.2254   21.7406 C.ar        1 MOL      -0.0137
     10 C6         23.1123   10.5452   20.6962 C.ar        1 MOL      -0.0453
     11 C7         24.4278   10.0450   20.6853 C.ar        1 MOL      -0.0390
     12 C8         24.8678    9.2082   21.7219 C.ar        1 MOL      -0.0398
     13 C9         23.9816    8.8634   22.7589 C.ar        1 MOL      -0.0390
     14 C10        22.6622    9.3405   22.7488 C.ar        1 MOL      -0.0453
     15 C11        20.1513   11.1822   23.0260 C.ar        1 MOL      -0.0130
     16 C12        20.9491   11.7760   24.0365 C.ar        1 MOL      -0.0451
     17 C13        20.3775   12.2543   25.2286 C.ar        1 MOL      -0.0383
     18 C14        18.9850   12.1918   25.4213 C.ar        1 MOL      -0.0321
     19 C15        18.1347   11.6814   24.4119 C.ar        1 MOL       0.0021
     20 C16        18.7460   11.1898   23.2329 C.ar        1 MOL      -0.0377
     21 C17        13.8639   11.7933   24.6508 C.ar        1 MOL      -0.0329
     22 C18        15.9071   10.6261   24.0575 C.ar        1 MOL      -0.0254
     23 C19        16.7013   11.6945   24.5483 C.ar        1 MOL      -0.0214
     24 C20        16.0274   12.8018   25.1192 C.ar        1 MOL      -0.0645
     25 C21        14.6229   12.8421   25.1898 C.ar        1 MOL      -0.0697
     26 C22        14.4914   10.6781   24.0639 C.ar        1 MOL       0.0911
     27 O2         13.6479    9.7121   23.5704 O.3         1 MOL      -0.3214
     28 C23        14.1071    8.7799   22.5781 C.3         1 MOL       0.0593
     29 H1         20.1159    8.6190   21.7214 H           1 MOL       0.3068
     30 H2         18.7491    7.8106   19.8071 H           1 MOL       0.3199
     31 H3         18.4863    8.8634   18.5296 H           1 MOL       0.3199
     32 H4         19.4311   12.5611   18.3918 H           1 MOL       0.0484
     33 H5         18.0118   11.5227   18.5722 H           1 MOL       0.0484
     34 H6         19.4278   10.9558   17.6655 H           1 MOL       0.0484
     35 H7         22.8244   11.1299   19.9115 H           1 MOL       0.0795
     36 H8         25.0584   10.2746   19.9140 H           1 MOL       0.0681
     37 H9         25.8263    8.8469   21.7194 H           1 MOL       0.0806
     38 H10        24.2960    8.2446   23.5097 H           1 MOL       0.0681
     39 H11        22.0317    9.0284   23.4925 H           1 MOL       0.0795
     40 H12        21.9601   11.8641   23.9144 H           1 MOL       0.0796
     41 H13        20.9745   12.6467   25.9621 H           1 MOL       0.0682
     42 H14        18.6001   12.5329   26.3047 H           1 MOL       0.0813
     43 H15        18.1476   10.8526   22.4762 H           1 MOL       0.0801
     44 H16        12.8416   11.8439   24.6903 H           1 MOL       0.0545
     45 H17        16.3609    9.7903   23.6870 H           1 MOL       0.0544
     46 H18        16.5490   13.6087   25.4665 H           1 MOL       0.0532
     47 H19        14.1523   13.6457   25.6145 H           1 MOL       0.0590
     48 H20        13.2387    8.2266   22.2201 H           1 MOL       0.0577
     49 H21        14.8115    8.0638   23.0078 H           1 MOL       0.0577
     50 H22        14.5688    9.2901   21.7287 H           1 MOL       0.0577
@<TRIPOS>BOND
     1     2     1   2
     2     3     2   1
     3     2     6  am
     4     3     4   1
     5     3     9   1
     6    15     3   1
     7     4     5  ar
     8     5     6   1
     9     5     7  ar
    10     6     8   1
    11     9    10  ar
    12     9    14  ar
    13    10    11  ar
    14    11    12  ar
    15    13    12  ar
    16    14    13  ar
    17    15    16  ar
    18    20    15  ar
    19    17    16  ar
    20    18    17  ar
    21    19    18  ar
    22    19    20  ar
    23    23    19   1
    24    21    25  ar
    25    26    21  ar
    26    22    23  ar
    27    22    26  ar
    28    23    24  ar
    29    24    25  ar
    30    26    27   1
    31    27    28   1
    32     4    29   1
    33     7    30   1
    34     7    31   1
    35     8    32   1
    36     8    33   1
    37     8    34   1
    38    10    35   1
    39    11    36   1
    40    12    37   1
    41    13    38   1
    42    14    39   1
    43    16    40   1
    44    17    41   1
    45    18    42   1
    46    20    43   1
    47    21    44   1
    48    22    45   1
    49    24    46   1
    50    25    47   1
    51    28    48   1
    52    28    49   1
    53    28    50   1
@<TRIPOS>SUBSTRUCTURE
     1  MOL      2

