@<TRIPOS>MOLECULE
4djv_ligand_041
    50    53
SMALL
GAST_HUCK
****
This file was generated by PARSER (from files_GN.cpp)

@<TRIPOS>ATOM
      1 O1         19.0166    8.1972   21.1283 O.2         1 MOL      -0.3721
      2 C1         17.9949    8.8475   20.9425 C.2         1 MOL       0.1984
      3 C2         17.8928   10.2706   21.2496 C.3         1 MOL       0.1861
      4 N1         16.5441   10.4707   20.8417 N.pl3       1 MOL      -0.2773
      5 C3         15.9790    9.3495   20.3799 C.cat       1 MOL       0.3179
      6 N2         16.8679    8.3465   20.4599 N.am        1 MOL      -0.2211
      7 N3         14.7228    9.2779   19.9102 N.pl3       1 MOL      -0.2550
      8 C4         16.6045    6.9787   20.1129 C.3         1 MOL       0.0234
      9 C5         17.9448   10.6018   22.7252 C.ar        1 MOL      -0.0137
     10 C6         17.4861    9.6906   23.7159 C.ar        1 MOL      -0.0453
     11 C7         17.5703    9.9868   25.0900 C.ar        1 MOL      -0.0390
     12 C8         18.1040   11.2166   25.5073 C.ar        1 MOL      -0.0398
     13 C9         18.5138   12.1603   24.5564 C.ar        1 MOL      -0.0390
     14 C10        18.4086   11.8628   23.1870 C.ar        1 MOL      -0.0453
     15 C11        18.9082   10.9628   20.3658 C.ar        1 MOL      -0.0130
     16 C12        18.5825   11.4566   19.0791 C.ar        1 MOL      -0.0451
     17 C13        19.5630   12.0291   18.2517 C.ar        1 MOL      -0.0383
     18 C14        20.8860   12.1543   18.7025 C.ar        1 MOL      -0.0321
     19 C15        21.2444   11.6795   19.9791 C.ar        1 MOL       0.0021
     20 C16        20.2626   11.0571   20.7792 C.ar        1 MOL      -0.0377
     21 C17        25.1658   12.3662   21.4161 C.ar        1 MOL      -0.0329
     22 C18        23.6192   11.0496   20.0717 C.ar        1 MOL      -0.0254
     23 C19        22.5496   11.8839   20.4749 C.ar        1 MOL      -0.0214
     24 C20        22.8047   12.9556   21.3598 C.ar        1 MOL      -0.0645
     25 C21        24.1071   13.1955   21.8254 C.ar        1 MOL      -0.0697
     26 C22        24.9258   11.2815   20.5473 C.ar        1 MOL       0.0911
     27 O2         25.9437   10.4892   20.0947 O.3         1 MOL      -0.3214
     28 C23        26.4638    9.5754   21.0803 C.3         1 MOL       0.0593
     29 H1         16.0910   11.3274   20.8787 H           1 MOL       0.3068
     30 H2         14.1538   10.0633   19.9138 H           1 MOL       0.3199
     31 H3         14.3830    8.4402   19.5491 H           1 MOL       0.3199
     32 H4         17.4616    6.3340   20.3098 H           1 MOL       0.0484
     33 H5         16.3549    6.9079   19.0535 H           1 MOL       0.0484
     34 H6         15.7622    6.6091   20.7009 H           1 MOL       0.0484
     35 H7         17.0857    8.7889   23.4472 H           1 MOL       0.0795
     36 H8         17.2479    9.3075   25.7834 H           1 MOL       0.0681
     37 H9         18.1831   11.4294   26.5074 H           1 MOL       0.0806
     38 H10        18.8896   13.0618   24.8577 H           1 MOL       0.0681
     39 H11        18.7039   12.5849   22.5204 H           1 MOL       0.0795
     40 H12        17.6291   11.3877   18.7176 H           1 MOL       0.0796
     41 H13        19.3110   12.3655   17.3153 H           1 MOL       0.0682
     42 H14        21.5826   12.6033   18.1018 H           1 MOL       0.0813
     43 H15        20.5379   10.6893   21.6969 H           1 MOL       0.0801
     44 H16        26.1143   12.5553   21.7539 H           1 MOL       0.0545
     45 H17        23.4489   10.2718   19.4274 H           1 MOL       0.0544
     46 H18        22.0468   13.5762   21.6551 H           1 MOL       0.0532
     47 H19        24.2891   13.9816   22.4570 H           1 MOL       0.0590
     48 H20        27.1516    8.8948   20.5826 H           1 MOL       0.0577
     49 H21        25.6700    8.9836   21.5441 H           1 MOL       0.0577
     50 H22        27.0163   10.1164   21.8503 H           1 MOL       0.0577
@<TRIPOS>BOND
     1     2     1   2
     2     3     2   1
     3     2     6  am
     4     3     4   1
     5     3     9   1
     6    15     3   1
     7     4     5  ar
     8     5     6   1
     9     5     7  ar
    10     6     8   1
    11     9    10  ar
    12     9    14  ar
    13    10    11  ar
    14    11    12  ar
    15    13    12  ar
    16    14    13  ar
    17    15    16  ar
    18    20    15  ar
    19    17    16  ar
    20    18    17  ar
    21    19    18  ar
    22    19    20  ar
    23    23    19   1
    24    21    25  ar
    25    26    21  ar
    26    22    23  ar
    27    22    26  ar
    28    23    24  ar
    29    24    25  ar
    30    26    27   1
    31    27    28   1
    32     4    29   1
    33     7    30   1
    34     7    31   1
    35     8    32   1
    36     8    33   1
    37     8    34   1
    38    10    35   1
    39    11    36   1
    40    12    37   1
    41    13    38   1
    42    14    39   1
    43    16    40   1
    44    17    41   1
    45    18    42   1
    46    20    43   1
    47    21    44   1
    48    22    45   1
    49    24    46   1
    50    25    47   1
    51    28    48   1
    52    28    49   1
    53    28    50   1
@<TRIPOS>SUBSTRUCTURE
     1  MOL      2

