@<TRIPOS>MOLECULE
4djv_ligand_039
    50    53
SMALL
GAST_HUCK
****
This file was generated by PARSER (from files_GN.cpp)

@<TRIPOS>ATOM
      1 O1         15.9535   10.8549   20.8628 O.2         1 MOL      -0.3721
      2 C1         16.5221   10.4802   21.8805 C.2         1 MOL       0.1984
      3 C2         17.7656   11.0782   22.3656 C.3         1 MOL       0.1861
      4 N1         17.9137   10.2851   23.5440 N.pl3       1 MOL      -0.2773
      5 C3         16.9347    9.3838   23.6845 C.cat       1 MOL       0.3179
      6 N2         16.0848    9.5002   22.6531 N.am        1 MOL      -0.2211
      7 N3         16.8681    8.5175   24.7076 N.pl3       1 MOL      -0.2550
      8 C4         14.9243    8.6794   22.4546 C.3         1 MOL       0.0234
      9 C5         18.8409   10.8524   21.3279 C.ar        1 MOL      -0.0137
     10 C6         19.8501    9.8625   21.4737 C.ar        1 MOL      -0.0453
     11 C7         20.8433    9.6819   20.4936 C.ar        1 MOL      -0.0390
     12 C8         20.8517   10.4903   19.3438 C.ar        1 MOL      -0.0398
     13 C9         19.8587   11.4696   19.1688 C.ar        1 MOL      -0.0390
     14 C10        18.8653   11.6439   20.1482 C.ar        1 MOL      -0.0453
     15 C11        17.7020   12.5120   22.8428 C.ar        1 MOL      -0.0130
     16 C12        16.4807   13.2116   23.0277 C.ar        1 MOL      -0.0451
     17 C13        16.4591   14.5393   23.4917 C.ar        1 MOL      -0.0383
     18 C14        17.6610   15.2020   23.7803 C.ar        1 MOL      -0.0321
     19 C15        18.9015   14.5479   23.6179 C.ar        1 MOL       0.0021
     20 C16        18.8981   13.2014   23.1720 C.ar        1 MOL      -0.0377
     21 C17        22.5444   16.6304   24.3712 C.ar        1 MOL      -0.0329
     22 C18        20.3299   15.9176   25.1014 C.ar        1 MOL      -0.0254
     23 C19        20.1238   15.2327   23.8797 C.ar        1 MOL      -0.0214
     24 C20        21.1555   15.2579   22.9107 C.ar        1 MOL      -0.0645
     25 C21        22.3561   15.9527   23.1537 C.ar        1 MOL      -0.0697
     26 C22        21.5283   16.6214   25.3485 C.ar        1 MOL       0.0911
     27 O2         21.7191   17.2431   26.5546 O.3         1 MOL      -0.3214
     28 C23        21.3207   18.6276   26.5550 C.3         1 MOL       0.0593
     29 H1         18.6560   10.3720   24.1654 H           1 MOL       0.3068
     30 H2         17.5684    8.5024   25.3768 H           1 MOL       0.3199
     31 H3         16.1343    7.8866   24.7649 H           1 MOL       0.3199
     32 H4         14.3937    8.9269   21.5323 H           1 MOL       0.0484
     33 H5         14.2335    8.8109   23.2894 H           1 MOL       0.0484
     34 H6         15.2107    7.6264   22.4010 H           1 MOL       0.0484
     35 H7         19.8737    9.2550   22.2950 H           1 MOL       0.0795
     36 H8         21.5612    8.9625   20.6185 H           1 MOL       0.0681
     37 H9         21.5795   10.3628   18.6382 H           1 MOL       0.0806
     38 H10        19.8633   12.0530   18.3301 H           1 MOL       0.0681
     39 H11        18.1569   12.3644   19.9982 H           1 MOL       0.0795
     40 H12        15.5827   12.7586   22.8417 H           1 MOL       0.0796
     41 H13        15.5683   15.0206   23.6194 H           1 MOL       0.0682
     42 H14        17.6225   16.1751   24.0980 H           1 MOL       0.0813
     43 H15        19.7913   12.7106   23.0854 H           1 MOL       0.0801
     44 H16        23.4172   17.1328   24.5444 H           1 MOL       0.0545
     45 H17        19.6081   15.9065   25.8257 H           1 MOL       0.0544
     46 H18        21.0398   14.7875   22.0090 H           1 MOL       0.0532
     47 H19        23.0930   15.9677   22.4441 H           1 MOL       0.0590
     48 H20        21.5163   19.0352   27.5482 H           1 MOL       0.0577
     49 H21        20.2499   18.7420   26.3456 H           1 MOL       0.0577
     50 H22        21.8993   19.2107   25.8282 H           1 MOL       0.0577
@<TRIPOS>BOND
     1     2     1   2
     2     3     2   1
     3     2     6  am
     4     3     4   1
     5     3     9   1
     6    15     3   1
     7     4     5  ar
     8     5     6   1
     9     5     7  ar
    10     6     8   1
    11     9    10  ar
    12     9    14  ar
    13    10    11  ar
    14    11    12  ar
    15    13    12  ar
    16    14    13  ar
    17    15    16  ar
    18    20    15  ar
    19    17    16  ar
    20    18    17  ar
    21    19    18  ar
    22    19    20  ar
    23    23    19   1
    24    21    25  ar
    25    26    21  ar
    26    22    23  ar
    27    22    26  ar
    28    23    24  ar
    29    24    25  ar
    30    26    27   1
    31    27    28   1
    32     4    29   1
    33     7    30   1
    34     7    31   1
    35     8    32   1
    36     8    33   1
    37     8    34   1
    38    10    35   1
    39    11    36   1
    40    12    37   1
    41    13    38   1
    42    14    39   1
    43    16    40   1
    44    17    41   1
    45    18    42   1
    46    20    43   1
    47    21    44   1
    48    22    45   1
    49    24    46   1
    50    25    47   1
    51    28    48   1
    52    28    49   1
    53    28    50   1
@<TRIPOS>SUBSTRUCTURE
     1  MOL      2

