@<TRIPOS>MOLECULE
4djv_ligand_018
    50    53
SMALL
GAST_HUCK
****
This file was generated by PARSER (from files_GN.cpp)

@<TRIPOS>ATOM
      1 O1         19.4477   13.7599   26.2179 O.2         1 MOL      -0.3721
      2 C1         20.3949   13.0995   26.6293 C.2         1 MOL       0.1984
      3 C2         21.4516   12.5816   25.7562 C.3         1 MOL       0.1861
      4 N1         22.1659   11.8434   26.7439 N.pl3       1 MOL      -0.2773
      5 C3         21.6491   11.9788   27.9661 C.cat       1 MOL       0.3179
      6 N2         20.5661   12.7678   27.8979 N.am        1 MOL      -0.2211
      7 N3         22.1771   11.3643   29.0352 N.pl3       1 MOL      -0.2550
      8 C4         19.7530   13.1316   29.0219 C.3         1 MOL       0.0234
      9 C5         21.0571   11.5562   24.7217 C.ar        1 MOL      -0.0137
     10 C6         22.0004   11.1380   23.7451 C.ar        1 MOL      -0.0453
     11 C7         21.6966   10.1331   22.8090 C.ar        1 MOL      -0.0390
     12 C8         20.4455    9.4949   22.8450 C.ar        1 MOL      -0.0398
     13 C9         19.5032    9.8641   23.8196 C.ar        1 MOL      -0.0390
     14 C10        19.8069   10.8795   24.7446 C.ar        1 MOL      -0.0453
     15 C11        22.2150   13.7656   25.2026 C.ar        1 MOL      -0.0130
     16 C12        21.6233   14.5925   24.2139 C.ar        1 MOL      -0.0451
     17 C13        22.2690   15.7502   23.7435 C.ar        1 MOL      -0.0383
     18 C14        23.5309   16.1045   24.2475 C.ar        1 MOL      -0.0321
     19 C15        24.1671   15.2885   25.2065 C.ar        1 MOL       0.0021
     20 C16        23.5073   14.1266   25.6676 C.ar        1 MOL      -0.0377
     21 C17        27.9954   16.3408   26.7025 C.ar        1 MOL      -0.0329
     22 C18        26.5820   14.8710   25.3686 C.ar        1 MOL      -0.0254
     23 C19        25.4433   15.6369   25.7098 C.ar        1 MOL      -0.0214
     24 C20        25.5984   16.7585   26.5555 C.ar        1 MOL      -0.0645
     25 C21        26.8682   17.1051   27.0529 C.ar        1 MOL      -0.0697
     26 C22        27.8618   15.2343   25.8363 C.ar        1 MOL       0.0911
     27 O2         28.9419   14.4859   25.4467 O.3         1 MOL      -0.3214
     28 C23        29.8005   15.1586   24.5053 C.3         1 MOL       0.0593
     29 H1         22.9307   11.2754   26.5665 H           1 MOL       0.3068
     30 H2         22.9237   10.7578   28.9033 H           1 MOL       0.3199
     31 H3         21.7841   11.4808   29.9143 H           1 MOL       0.3199
     32 H4         18.8994   13.7478   28.7318 H           1 MOL       0.0484
     33 H5         20.3501   13.6991   29.7394 H           1 MOL       0.0484
     34 H6         19.3747   12.2310   29.5108 H           1 MOL       0.0484
     35 H7         22.9306   11.5612   23.7130 H           1 MOL       0.0795
     36 H8         22.3883    9.8562   22.1082 H           1 MOL       0.0681
     37 H9         20.2282    8.7565   22.1727 H           1 MOL       0.0806
     38 H10        18.6023    9.3809   23.8643 H           1 MOL       0.0681
     39 H11        19.1093   11.0987   25.4572 H           1 MOL       0.0795
     40 H12        20.6984   14.3675   23.8421 H           1 MOL       0.0796
     41 H13        21.8159   16.3406   23.0408 H           1 MOL       0.0682
     42 H14        23.9877   16.9522   23.8983 H           1 MOL       0.0813
     43 H15        23.9712   13.5563   26.3776 H           1 MOL       0.0801
     44 H16        28.9154   16.6010   27.0652 H           1 MOL       0.0545
     45 H17        26.4899   14.0571   24.7552 H           1 MOL       0.0544
     46 H18        24.7878   17.3236   26.8223 H           1 MOL       0.0532
     47 H19        26.9721   17.9170   27.6647 H           1 MOL       0.0590
     48 H20        30.5118   14.4352   24.1087 H           1 MOL       0.0577
     49 H21        30.3659   15.9519   24.9973 H           1 MOL       0.0577
     50 H22        29.2442   15.5797   23.6628 H           1 MOL       0.0577
@<TRIPOS>BOND
     1     2     1   2
     2     3     2   1
     3     2     6  am
     4     3     4   1
     5     3     9   1
     6    15     3   1
     7     4     5  ar
     8     5     6   1
     9     5     7  ar
    10     6     8   1
    11     9    10  ar
    12     9    14  ar
    13    10    11  ar
    14    11    12  ar
    15    13    12  ar
    16    14    13  ar
    17    15    16  ar
    18    20    15  ar
    19    17    16  ar
    20    18    17  ar
    21    19    18  ar
    22    19    20  ar
    23    23    19   1
    24    21    25  ar
    25    26    21  ar
    26    22    23  ar
    27    22    26  ar
    28    23    24  ar
    29    24    25  ar
    30    26    27   1
    31    27    28   1
    32     4    29   1
    33     7    30   1
    34     7    31   1
    35     8    32   1
    36     8    33   1
    37     8    34   1
    38    10    35   1
    39    11    36   1
    40    12    37   1
    41    13    38   1
    42    14    39   1
    43    16    40   1
    44    17    41   1
    45    18    42   1
    46    20    43   1
    47    21    44   1
    48    22    45   1
    49    24    46   1
    50    25    47   1
    51    28    48   1
    52    28    49   1
    53    28    50   1
@<TRIPOS>SUBSTRUCTURE
     1  MOL      2

