@<TRIPOS>MOLECULE
4djv_ligand_010
    50    53
SMALL
GAST_HUCK
****
This file was generated by PARSER (from files_GN.cpp)

@<TRIPOS>ATOM
      1 O1         18.9230   12.0039   24.3529 O.2         1 MOL      -0.3721
      2 C1         19.5911   10.9881   24.1993 C.2         1 MOL       0.1984
      3 C2         19.4450   10.1102   23.0386 C.3         1 MOL       0.1861
      4 N1         20.3887    9.1078   23.4179 N.pl3       1 MOL      -0.2773
      5 C3         20.9943    9.3988   24.5744 C.cat       1 MOL       0.3179
      6 N2         20.4769   10.5346   25.0734 N.am        1 MOL      -0.2211
      7 N3         21.9780    8.6496   25.0949 N.pl3       1 MOL      -0.2550
      8 C4         20.8266   11.1057   26.3414 C.3         1 MOL       0.0234
      9 C5         18.0922    9.4214   22.9460 C.ar        1 MOL      -0.0137
     10 C6         17.3146    9.1299   24.1026 C.ar        1 MOL      -0.0453
     11 C7         16.0354    8.5469   24.0076 C.ar        1 MOL      -0.0390
     12 C8         15.5036    8.2286   22.7495 C.ar        1 MOL      -0.0398
     13 C9         16.2718    8.4460   21.5928 C.ar        1 MOL      -0.0390
     14 C10        17.5633    9.0005   21.6973 C.ar        1 MOL      -0.0453
     15 C11        19.8982   10.8965   21.8246 C.ar        1 MOL      -0.0130
     16 C12        18.9587   11.6240   21.0526 C.ar        1 MOL      -0.0451
     17 C13        19.3375   12.2807   19.8699 C.ar        1 MOL      -0.0383
     18 C14        20.6874   12.3080   19.4830 C.ar        1 MOL      -0.0321
     19 C15        21.6718   11.6925   20.2825 C.ar        1 MOL       0.0021
     20 C16        21.2642   10.9853   21.4379 C.ar        1 MOL      -0.0377
     21 C17        25.7504   11.8291   19.1083 C.ar        1 MOL      -0.0329
     22 C18        23.4342   11.3221   18.6096 C.ar        1 MOL      -0.0254
     23 C19        23.0419   11.7432   19.9029 C.ar        1 MOL      -0.0214
     24 C20        24.0342   12.2091   20.7964 C.ar        1 MOL      -0.0645
     25 C21        25.3815   12.2540   20.3982 C.ar        1 MOL      -0.0697
     26 C22        24.7890   11.3562   18.1958 C.ar        1 MOL       0.0911
     27 O2         25.2587   10.9730   16.9603 O.3         1 MOL      -0.3214
     28 C23        24.3607   10.4644   15.9592 C.3         1 MOL       0.0593
     29 H1         20.6391    8.3487   22.8631 H           1 MOL       0.3068
     30 H2         22.2745    7.8516   24.6322 H           1 MOL       0.3199
     31 H3         22.4187    8.9258   25.9107 H           1 MOL       0.3199
     32 H4         20.2550   12.0100   26.5583 H           1 MOL       0.0484
     33 H5         21.8871   11.3604   26.3562 H           1 MOL       0.0484
     34 H6         20.6266   10.3826   27.1343 H           1 MOL       0.0484
     35 H7         17.6660    9.3500   25.0355 H           1 MOL       0.0795
     36 H8         15.4897    8.3699   24.8517 H           1 MOL       0.0681
     37 H9         14.5633    7.8330   22.6748 H           1 MOL       0.0806
     38 H10        15.8872    8.2067   20.6765 H           1 MOL       0.0681
     39 H11        18.1065    9.1111   20.8395 H           1 MOL       0.0795
     40 H12        17.9738   11.6486   21.3249 H           1 MOL       0.0796
     41 H13        18.6311   12.7270   19.2858 H           1 MOL       0.0682
     42 H14        20.9433   12.7904   18.6176 H           1 MOL       0.0813
     43 H15        21.9781   10.5118   21.9952 H           1 MOL       0.0801
     44 H16        26.7370   11.8646   18.8347 H           1 MOL       0.0545
     45 H17        22.7231   10.9727   17.9643 H           1 MOL       0.0544
     46 H18        23.7861   12.5330   21.7336 H           1 MOL       0.0532
     47 H19        26.0975   12.5984   21.0459 H           1 MOL       0.0590
     48 H20        24.9189   10.2603   15.0438 H           1 MOL       0.0577
     49 H21        23.5958   11.2027   15.7256 H           1 MOL       0.0577
     50 H22        23.8902    9.5364   16.2913 H           1 MOL       0.0577
@<TRIPOS>BOND
     1     2     1   2
     2     3     2   1
     3     2     6  am
     4     3     4   1
     5     3     9   1
     6    15     3   1
     7     4     5  ar
     8     5     6   1
     9     5     7  ar
    10     6     8   1
    11     9    10  ar
    12     9    14  ar
    13    10    11  ar
    14    11    12  ar
    15    13    12  ar
    16    14    13  ar
    17    15    16  ar
    18    20    15  ar
    19    17    16  ar
    20    18    17  ar
    21    19    18  ar
    22    19    20  ar
    23    23    19   1
    24    21    25  ar
    25    26    21  ar
    26    22    23  ar
    27    22    26  ar
    28    23    24  ar
    29    24    25  ar
    30    26    27   1
    31    27    28   1
    32     4    29   1
    33     7    30   1
    34     7    31   1
    35     8    32   1
    36     8    33   1
    37     8    34   1
    38    10    35   1
    39    11    36   1
    40    12    37   1
    41    13    38   1
    42    14    39   1
    43    16    40   1
    44    17    41   1
    45    18    42   1
    46    20    43   1
    47    21    44   1
    48    22    45   1
    49    24    46   1
    50    25    47   1
    51    28    48   1
    52    28    49   1
    53    28    50   1
@<TRIPOS>SUBSTRUCTURE
     1  MOL      2

