@<TRIPOS>MOLECULE
4djv_ligand_017
    50    53
SMALL
GAST_HUCK
****
This file was generated by PARSER (from files_GN.cpp)

@<TRIPOS>ATOM
      1 O1         14.5671   10.6080   22.4864 O.2         1 MOL      -0.3721
      2 C1         15.3761   10.1736   23.2931 C.2         1 MOL       0.1984
      3 C2         16.7737    9.8582   22.9643 C.3         1 MOL       0.1861
      4 N1         17.0887    9.1613   24.1704 N.pl3       1 MOL      -0.2773
      5 C3         16.0868    9.1799   25.0508 C.cat       1 MOL       0.3179
      6 N2         15.0224    9.7676   24.4986 N.am        1 MOL      -0.2211
      7 N3         16.2009    8.6544   26.2799 N.pl3       1 MOL      -0.2550
      8 C4         13.7271    9.8612   25.1157 C.3         1 MOL       0.0234
      9 C5         16.8909    8.8943   21.7988 C.ar        1 MOL      -0.0137
     10 C6         16.0103    7.7828   21.6951 C.ar        1 MOL      -0.0453
     11 C7         16.0692    6.8914   20.6080 C.ar        1 MOL      -0.0390
     12 C8         17.0386    7.0604   19.6076 C.ar        1 MOL      -0.0398
     13 C9         17.9428    8.1278   19.6971 C.ar        1 MOL      -0.0390
     14 C10        17.8688    9.0317   20.7735 C.ar        1 MOL      -0.0453
     15 C11        17.6359   11.1033   22.8536 C.ar        1 MOL      -0.0130
     16 C12        17.2330   12.2189   22.0821 C.ar        1 MOL      -0.0451
     17 C13        18.0828   13.3179   21.8888 C.ar        1 MOL      -0.0383
     18 C14        19.3775   13.3177   22.4281 C.ar        1 MOL      -0.0321
     19 C15        19.8522   12.2188   23.1848 C.ar        1 MOL       0.0021
     20 C16        18.9614   11.1304   23.3781 C.ar        1 MOL      -0.0377
     21 C17        23.8087   12.1725   24.8506 C.ar        1 MOL      -0.0329
     22 C18        21.8101   13.4001   24.1855 C.ar        1 MOL      -0.0254
     23 C19        21.1810   12.2074   23.7322 C.ar        1 MOL      -0.0214
     24 C20        21.9200   11.0011   23.8565 C.ar        1 MOL      -0.0645
     25 C21        23.2099   10.9800   24.4195 C.ar        1 MOL      -0.0697
     26 C22        23.1027   13.3868   24.7500 C.ar        1 MOL       0.0911
     27 O2         23.6850   14.5629   25.1477 O.3         1 MOL      -0.3214
     28 C23        23.8014   14.6876   26.5752 C.3         1 MOL       0.0593
     29 H1         17.9512    8.7637   24.3724 H           1 MOL       0.3068
     30 H2         17.0458    8.2654   26.5498 H           1 MOL       0.3199
     31 H3         15.4546    8.6945   26.8987 H           1 MOL       0.3199
     32 H4         12.9889   10.3275   24.4598 H           1 MOL       0.0484
     33 H5         13.7930   10.4516   26.0307 H           1 MOL       0.0484
     34 H6         13.3685    8.8619   25.3606 H           1 MOL       0.0484
     35 H7         15.2996    7.6144   22.4114 H           1 MOL       0.0795
     36 H8         15.4104    6.1137   20.5537 H           1 MOL       0.0681
     37 H9         17.0848    6.4114   18.8199 H           1 MOL       0.0806
     38 H10        18.6511    8.2572   18.9713 H           1 MOL       0.0681
     39 H11        18.5497    9.7881   20.7942 H           1 MOL       0.0795
     40 H12        16.3186   12.2452   21.6271 H           1 MOL       0.0796
     41 H13        17.7565   14.1151   21.3357 H           1 MOL       0.0682
     42 H14        19.9736   14.1205   22.2323 H           1 MOL       0.0813
     43 H15        19.2849   10.3235   23.9118 H           1 MOL       0.0801
     44 H16        24.7509   12.1553   25.2391 H           1 MOL       0.0545
     45 H17        21.3212   14.2947   24.1362 H           1 MOL       0.0544
     46 H18        21.5351   10.1127   23.5249 H           1 MOL       0.0532
     47 H19        23.7133   10.0938   24.5093 H           1 MOL       0.0590
     48 H20        24.2506   15.6557   26.7957 H           1 MOL       0.0577
     49 H21        24.4483   13.9125   26.9917 H           1 MOL       0.0577
     50 H22        22.8241   14.6475   27.0639 H           1 MOL       0.0577
@<TRIPOS>BOND
     1     2     1   2
     2     3     2   1
     3     2     6  am
     4     3     4   1
     5     3     9   1
     6    15     3   1
     7     4     5  ar
     8     5     6   1
     9     5     7  ar
    10     6     8   1
    11     9    10  ar
    12     9    14  ar
    13    10    11  ar
    14    11    12  ar
    15    13    12  ar
    16    14    13  ar
    17    15    16  ar
    18    20    15  ar
    19    17    16  ar
    20    18    17  ar
    21    19    18  ar
    22    19    20  ar
    23    23    19   1
    24    21    25  ar
    25    26    21  ar
    26    22    23  ar
    27    22    26  ar
    28    23    24  ar
    29    24    25  ar
    30    26    27   1
    31    27    28   1
    32     4    29   1
    33     7    30   1
    34     7    31   1
    35     8    32   1
    36     8    33   1
    37     8    34   1
    38    10    35   1
    39    11    36   1
    40    12    37   1
    41    13    38   1
    42    14    39   1
    43    16    40   1
    44    17    41   1
    45    18    42   1
    46    20    43   1
    47    21    44   1
    48    22    45   1
    49    24    46   1
    50    25    47   1
    51    28    48   1
    52    28    49   1
    53    28    50   1
@<TRIPOS>SUBSTRUCTURE
     1  MOL      2

