@<TRIPOS>MOLECULE
4djv_ligand_043
    50    53
SMALL
GAST_HUCK
****
This file was generated by PARSER (from files_GN.cpp)

@<TRIPOS>ATOM
      1 O1         18.0816    7.7762   21.7821 O.2         1 MOL      -0.3721
      2 C1         17.1568    8.3836   21.2647 C.2         1 MOL       0.1984
      3 C2         16.6234    9.6411   21.7873 C.3         1 MOL       0.1861
      4 N1         15.5745    9.7959   20.8271 N.pl3       1 MOL      -0.2773
      5 C3         15.5348    8.8114   19.9258 C.cat       1 MOL       0.3179
      6 N2         16.5324    7.9562   20.1829 N.am        1 MOL      -0.2211
      7 N3         14.6105    8.7285   18.9550 N.pl3       1 MOL      -0.2550
      8 C4         16.8323    6.7912   19.4106 C.3         1 MOL       0.0234
      9 C5         16.1146    9.4419   23.1962 C.ar        1 MOL      -0.0137
     10 C6         17.0362    9.2543   24.2603 C.ar        1 MOL      -0.0453
     11 C7         16.5975    8.9976   25.5735 C.ar        1 MOL      -0.0390
     12 C8         15.2242    8.9242   25.8581 C.ar        1 MOL      -0.0398
     13 C9         14.2910    9.1192   24.8279 C.ar        1 MOL      -0.0390
     14 C10        14.7304    9.3774   23.5162 C.ar        1 MOL      -0.0453
     15 C11        17.5261   10.8476   21.6504 C.ar        1 MOL      -0.0130
     16 C12        16.9704   12.1469   21.7762 C.ar        1 MOL      -0.0451
     17 C13        17.7397   13.3020   21.5454 C.ar        1 MOL      -0.0383
     18 C14        19.0981   13.1903   21.2023 C.ar        1 MOL      -0.0321
     19 C15        19.6979   11.9172   21.1177 C.ar        1 MOL       0.0021
     20 C16        18.9142   10.7645   21.3501 C.ar        1 MOL      -0.0377
     21 C17        23.8020   11.4379   20.2082 C.ar        1 MOL      -0.0329
     22 C18        21.5093   11.7953   19.4626 C.ar        1 MOL      -0.0254
     23 C19        21.0677   11.7835   20.8063 C.ar        1 MOL      -0.0214
     24 C20        22.0029   11.5809   21.8451 C.ar        1 MOL      -0.0645
     25 C21        23.3664   11.4145   21.5450 C.ar        1 MOL      -0.0697
     26 C22        22.8743   11.5987   19.1555 C.ar        1 MOL       0.0911
     27 O2         23.2828   11.6319   17.8447 O.3         1 MOL      -0.3214
     28 C23        23.7623   10.3762   17.3272 C.3         1 MOL       0.0593
     29 H1         14.9428   10.5337   20.8359 H           1 MOL       0.3068
     30 H2         13.9166    9.4016   18.8952 H           1 MOL       0.3199
     31 H3         14.6140    7.9816   18.3396 H           1 MOL       0.3199
     32 H4         17.6998    6.2469   19.7911 H           1 MOL       0.0484
     33 H5         17.0409    7.0773   18.3770 H           1 MOL       0.0484
     34 H6         15.9763    6.1177   19.4299 H           1 MOL       0.0484
     35 H7         18.0430    9.2844   24.0819 H           1 MOL       0.0795
     36 H8         17.2774    8.8494   26.3203 H           1 MOL       0.0681
     37 H9         14.9064    8.7314   26.8099 H           1 MOL       0.0806
     38 H10        13.2902    9.0580   25.0302 H           1 MOL       0.0681
     39 H11        14.0188    9.4924   22.7914 H           1 MOL       0.0795
     40 H12        15.9777   12.2596   22.0086 H           1 MOL       0.0796
     41 H13        17.3011   14.2214   21.6138 H           1 MOL       0.0682
     42 H14        19.6446   14.0378   21.0245 H           1 MOL       0.0813
     43 H15        19.3737    9.8533   21.2785 H           1 MOL       0.0801
     44 H16        24.7980   11.3334   19.9993 H           1 MOL       0.0545
     45 H17        20.8370   11.9355   18.7023 H           1 MOL       0.0544
     46 H18        21.7034   11.5522   22.8244 H           1 MOL       0.0532
     47 H19        24.0462   11.2795   22.2982 H           1 MOL       0.0590
     48 H20        23.9279   10.4898   16.2530 H           1 MOL       0.0577
     49 H21        23.0313    9.5762   17.4780 H           1 MOL       0.0577
     50 H22        24.7119   10.0919   17.7915 H           1 MOL       0.0577
@<TRIPOS>BOND
     1     2     1   2
     2     3     2   1
     3     2     6  am
     4     3     4   1
     5     3     9   1
     6    15     3   1
     7     4     5  ar
     8     5     6   1
     9     5     7  ar
    10     6     8   1
    11     9    10  ar
    12     9    14  ar
    13    10    11  ar
    14    11    12  ar
    15    13    12  ar
    16    14    13  ar
    17    15    16  ar
    18    20    15  ar
    19    17    16  ar
    20    18    17  ar
    21    19    18  ar
    22    19    20  ar
    23    23    19   1
    24    21    25  ar
    25    26    21  ar
    26    22    23  ar
    27    22    26  ar
    28    23    24  ar
    29    24    25  ar
    30    26    27   1
    31    27    28   1
    32     4    29   1
    33     7    30   1
    34     7    31   1
    35     8    32   1
    36     8    33   1
    37     8    34   1
    38    10    35   1
    39    11    36   1
    40    12    37   1
    41    13    38   1
    42    14    39   1
    43    16    40   1
    44    17    41   1
    45    18    42   1
    46    20    43   1
    47    21    44   1
    48    22    45   1
    49    24    46   1
    50    25    47   1
    51    28    48   1
    52    28    49   1
    53    28    50   1
@<TRIPOS>SUBSTRUCTURE
     1  MOL      2

