@<TRIPOS>MOLECULE
4djv_ligand_050
    50    53
SMALL
GAST_HUCK
****
This file was generated by PARSER (from files_GN.cpp)

@<TRIPOS>ATOM
      1 O1         15.5357   11.1488   19.8777 O.2         1 MOL      -0.3721
      2 C1         16.0615   10.1530   20.3563 C.2         1 MOL       0.1984
      3 C2         17.1439   10.2303   21.3305 C.3         1 MOL       0.1861
      4 N1         17.3101    8.8358   21.5533 N.pl3       1 MOL      -0.2773
      5 C3         16.4678    8.0945   20.8273 C.cat       1 MOL       0.3179
      6 N2         15.6850    8.9115   20.0978 N.am        1 MOL      -0.2211
      7 N3         16.4305    6.7573   20.8289 N.pl3       1 MOL      -0.2550
      8 C4         14.6599    8.4612   19.2123 C.3         1 MOL       0.0234
      9 C5         18.3460   10.8487   20.6436 C.ar        1 MOL      -0.0137
     10 C6         18.5820   12.2486   20.7077 C.ar        1 MOL      -0.0453
     11 C7         19.7295   12.8220   20.1319 C.ar        1 MOL      -0.0390
     12 C8         20.6393   12.0223   19.4210 C.ar        1 MOL      -0.0398
     13 C9         20.3960   10.6444   19.2882 C.ar        1 MOL      -0.0390
     14 C10        19.2603   10.0707   19.8861 C.ar        1 MOL      -0.0453
     15 C11        16.7758   10.8277   22.6744 C.ar        1 MOL      -0.0130
     16 C12        15.4368   11.0929   23.0539 C.ar        1 MOL      -0.0451
     17 C13        15.1277   11.7582   24.2500 C.ar        1 MOL      -0.0383
     18 C14        16.1598   12.1450   25.1231 C.ar        1 MOL      -0.0321
     19 C15        17.4941   11.8112   24.8308 C.ar        1 MOL       0.0021
     20 C16        17.7902   11.1400   23.6202 C.ar        1 MOL      -0.0377
     21 C17        20.6320   12.9521   27.4269 C.ar        1 MOL      -0.0329
     22 C18        19.2418   11.2261   26.4446 C.ar        1 MOL      -0.0254
     23 C19        18.5329   12.1957   25.7104 C.ar        1 MOL      -0.0214
     24 C20        18.8766   13.5558   25.8575 C.ar        1 MOL      -0.0645
     25 C21        19.9281   13.9335   26.7129 C.ar        1 MOL      -0.0697
     26 C22        20.3046   11.5841   27.3153 C.ar        1 MOL       0.0911
     27 O2         21.0466   10.7217   28.0930 O.3         1 MOL      -0.3214
     28 C23        20.9492    9.3012   27.8962 C.3         1 MOL       0.0593
     29 H1         17.9852    8.4681   22.1441 H           1 MOL       0.3068
     30 H2         17.0758    6.2573   21.3537 H           1 MOL       0.3199
     31 H3         15.7647    6.2845   20.2997 H           1 MOL       0.3199
     32 H4         14.1248    9.2894   18.7461 H           1 MOL       0.0484
     33 H5         13.9347    7.8581   19.7628 H           1 MOL       0.0484
     34 H6         15.0959    7.8460   18.4219 H           1 MOL       0.0484
     35 H7         17.9313   12.8635   21.2003 H           1 MOL       0.0795
     36 H8         19.9075   13.8213   20.2353 H           1 MOL       0.0681
     37 H9         21.4700   12.4418   18.9978 H           1 MOL       0.0806
     38 H10        21.0512   10.0597   18.7646 H           1 MOL       0.0681
     39 H11        19.1133    9.0659   19.7590 H           1 MOL       0.0795
     40 H12        14.6591   10.8172   22.4531 H           1 MOL       0.0796
     41 H13        14.1534   11.9605   24.4880 H           1 MOL       0.0682
     42 H14        15.9184   12.6371   25.9861 H           1 MOL       0.0813
     43 H15        18.7627   10.9113   23.4040 H           1 MOL       0.0801
     44 H16        21.3947   13.2395   28.0429 H           1 MOL       0.0545
     45 H17        18.9669   10.2516   26.3430 H           1 MOL       0.0544
     46 H18        18.3770   14.2801   25.3389 H           1 MOL       0.0532
     47 H19        20.1833   14.9177   26.8032 H           1 MOL       0.0590
     48 H20        21.6475    8.8093   28.5663 H           1 MOL       0.0577
     49 H21        21.2119    9.0280   26.8723 H           1 MOL       0.0577
     50 H22        19.9513    8.9346   28.1398 H           1 MOL       0.0577
@<TRIPOS>BOND
     1     2     1   2
     2     3     2   1
     3     2     6  am
     4     3     4   1
     5     3     9   1
     6    15     3   1
     7     4     5  ar
     8     5     6   1
     9     5     7  ar
    10     6     8   1
    11     9    10  ar
    12     9    14  ar
    13    10    11  ar
    14    11    12  ar
    15    13    12  ar
    16    14    13  ar
    17    15    16  ar
    18    20    15  ar
    19    17    16  ar
    20    18    17  ar
    21    19    18  ar
    22    19    20  ar
    23    23    19   1
    24    21    25  ar
    25    26    21  ar
    26    22    23  ar
    27    22    26  ar
    28    23    24  ar
    29    24    25  ar
    30    26    27   1
    31    27    28   1
    32     4    29   1
    33     7    30   1
    34     7    31   1
    35     8    32   1
    36     8    33   1
    37     8    34   1
    38    10    35   1
    39    11    36   1
    40    12    37   1
    41    13    38   1
    42    14    39   1
    43    16    40   1
    44    17    41   1
    45    18    42   1
    46    20    43   1
    47    21    44   1
    48    22    45   1
    49    24    46   1
    50    25    47   1
    51    28    48   1
    52    28    49   1
    53    28    50   1
@<TRIPOS>SUBSTRUCTURE
     1  MOL      2

