@<TRIPOS>MOLECULE
4djv_ligand_026
    50    53
SMALL
GAST_HUCK
****
This file was generated by PARSER (from files_GN.cpp)

@<TRIPOS>ATOM
      1 O1         21.6741   13.6904   20.9494 O.2         1 MOL      -0.3721
      2 C1         21.6108   12.4840   21.1507 C.2         1 MOL       0.1984
      3 C2         21.0215   11.8958   22.3459 C.3         1 MOL       0.1861
      4 N1         21.3346   10.5256   22.0730 N.pl3       1 MOL      -0.2773
      5 C3         21.9517   10.3716   20.8893 C.cat       1 MOL       0.3179
      6 N2         22.1192   11.5793   20.3282 N.am        1 MOL      -0.2211
      7 N3         22.3110    9.1740   20.3962 N.pl3       1 MOL      -0.2550
      8 C4         22.7731   11.8077   19.0704 C.3         1 MOL       0.0234
      9 C5         21.7739   12.2701   23.6154 C.ar        1 MOL      -0.0137
     10 C6         23.1568   11.9560   23.7465 C.ar        1 MOL      -0.0453
     11 C7         23.8938   12.2920   24.8962 C.ar        1 MOL      -0.0390
     12 C8         23.2684   12.9818   25.9465 C.ar        1 MOL      -0.0398
     13 C9         21.9044   13.2843   25.8678 C.ar        1 MOL      -0.0390
     14 C10        21.1612   12.9060   24.7302 C.ar        1 MOL      -0.0453
     15 C11        19.5194   12.1381   22.3312 C.ar        1 MOL      -0.0130
     16 C12        19.0032   13.4469   22.5232 C.ar        1 MOL      -0.0451
     17 C13        17.6177   13.6888   22.5799 C.ar        1 MOL      -0.0383
     18 C14        16.7073   12.6372   22.3602 C.ar        1 MOL      -0.0321
     19 C15        17.1774   11.3385   22.0737 C.ar        1 MOL       0.0021
     20 C16        18.5758   11.1067   22.0999 C.ar        1 MOL      -0.0377
     21 C17        14.6408    8.0304   21.2101 C.ar        1 MOL      -0.0329
     22 C18        16.5685    9.4045   20.6697 C.ar        1 MOL      -0.0254
     23 C19        16.2865   10.2722   21.7585 C.ar        1 MOL      -0.0214
     24 C20        15.1344   10.0112   22.5383 C.ar        1 MOL      -0.0645
     25 C21        14.3099    8.9061   22.2548 C.ar        1 MOL      -0.0697
     26 C22        15.7803    8.2582   20.4165 C.ar        1 MOL       0.0911
     27 O2         16.0518    7.4007   19.3824 O.3         1 MOL      -0.3214
     28 C23        17.3606    6.8041   19.3974 C.3         1 MOL       0.0593
     29 H1         21.1073    9.7887   22.6556 H           1 MOL       0.3068
     30 H2         22.1184    8.3657   20.8935 H           1 MOL       0.3199
     31 H3         22.7376    9.1193   19.5253 H           1 MOL       0.3199
     32 H4         22.8011   12.8625   18.8071 H           1 MOL       0.0484
     33 H5         22.2440   11.2732   18.2799 H           1 MOL       0.0484
     34 H6         23.7985   11.4388   19.1208 H           1 MOL       0.0484
     35 H7         23.6468   11.4675   22.9968 H           1 MOL       0.0795
     36 H8         24.8827   12.0482   24.9628 H           1 MOL       0.0681
     37 H9         23.8108   13.2606   26.7685 H           1 MOL       0.0806
     38 H10        21.4472   13.7768   26.6370 H           1 MOL       0.0681
     39 H11        20.1650   13.1031   24.7405 H           1 MOL       0.0795
     40 H12        19.6338   14.2368   22.6586 H           1 MOL       0.0796
     41 H13        17.2704   14.6310   22.7680 H           1 MOL       0.0682
     42 H14        15.7068   12.8416   22.3784 H           1 MOL       0.0813
     43 H15        18.9055   10.1540   21.9399 H           1 MOL       0.0801
     44 H16        14.0381    7.2238   21.0186 H           1 MOL       0.0545
     45 H17        17.3577    9.6031   20.0548 H           1 MOL       0.0544
     46 H18        14.9021   10.6096   23.3325 H           1 MOL       0.0532
     47 H19        13.4747    8.7382   22.8180 H           1 MOL       0.0590
     48 H20        17.3870    6.0183   18.6375 H           1 MOL       0.0577
     49 H21        17.5960    6.3503   20.3638 H           1 MOL       0.0577
     50 H22        18.1272    7.5358   19.1439 H           1 MOL       0.0577
@<TRIPOS>BOND
     1     2     1   2
     2     3     2   1
     3     2     6  am
     4     3     4   1
     5     3     9   1
     6    15     3   1
     7     4     5  ar
     8     5     6   1
     9     5     7  ar
    10     6     8   1
    11     9    10  ar
    12     9    14  ar
    13    10    11  ar
    14    11    12  ar
    15    13    12  ar
    16    14    13  ar
    17    15    16  ar
    18    20    15  ar
    19    17    16  ar
    20    18    17  ar
    21    19    18  ar
    22    19    20  ar
    23    23    19   1
    24    21    25  ar
    25    26    21  ar
    26    22    23  ar
    27    22    26  ar
    28    23    24  ar
    29    24    25  ar
    30    26    27   1
    31    27    28   1
    32     4    29   1
    33     7    30   1
    34     7    31   1
    35     8    32   1
    36     8    33   1
    37     8    34   1
    38    10    35   1
    39    11    36   1
    40    12    37   1
    41    13    38   1
    42    14    39   1
    43    16    40   1
    44    17    41   1
    45    18    42   1
    46    20    43   1
    47    21    44   1
    48    22    45   1
    49    24    46   1
    50    25    47   1
    51    28    48   1
    52    28    49   1
    53    28    50   1
@<TRIPOS>SUBSTRUCTURE
     1  MOL      2

