@<TRIPOS>MOLECULE
4djv_ligand_033
    50    53
SMALL
GAST_HUCK
****
This file was generated by PARSER (from files_GN.cpp)

@<TRIPOS>ATOM
      1 O1         26.4496   11.1554   21.5577 O.2         1 MOL      -0.3721
      2 C1         27.6658   11.2497   21.6749 C.2         1 MOL       0.1984
      3 C2         28.3959   12.5186   21.5963 C.3         1 MOL       0.1861
      4 N1         29.7100   11.9660   21.5610 N.pl3       1 MOL      -0.2773
      5 C3         29.7248   10.6469   21.7672 C.cat       1 MOL       0.3179
      6 N2         28.4581   10.2028   21.8076 N.am        1 MOL      -0.2211
      7 N3         30.8431    9.9208   21.9281 N.pl3       1 MOL      -0.2550
      8 C4         28.0949    8.8189   21.9167 C.3         1 MOL       0.0234
      9 C5         28.1744   13.2662   20.2922 C.ar        1 MOL      -0.0137
     10 C6         28.8355   14.4917   20.0050 C.ar        1 MOL      -0.0453
     11 C7         28.6527   15.1644   18.7844 C.ar        1 MOL      -0.0390
     12 C8         27.8013   14.6284   17.8083 C.ar        1 MOL      -0.0398
     13 C9         27.1460   13.4105   18.0517 C.ar        1 MOL      -0.0390
     14 C10        27.3421   12.7334   19.2701 C.ar        1 MOL      -0.0453
     15 C11        28.1941   13.3418   22.8519 C.ar        1 MOL      -0.0130
     16 C12        29.2468   14.0950   23.4403 C.ar        1 MOL      -0.0451
     17 C13        29.0436   14.9020   24.5700 C.ar        1 MOL      -0.0383
     18 C14        27.7659   15.0056   25.1375 C.ar        1 MOL      -0.0321
     19 C15        26.6884   14.2810   24.5869 C.ar        1 MOL       0.0021
     20 C16        26.9099   13.4680   23.4455 C.ar        1 MOL      -0.0377
     21 C17        22.9110   14.5206   26.4977 C.ar        1 MOL      -0.0329
     22 C18        24.8532   15.6264   25.5398 C.ar        1 MOL      -0.0254
     23 C19        25.4070   14.3664   25.1932 C.ar        1 MOL      -0.0214
     24 C20        24.6871   13.1890   25.4945 C.ar        1 MOL      -0.0645
     25 C21        23.4460   13.2672   26.1442 C.ar        1 MOL      -0.0697
     26 C22        23.6139   15.7085   26.2088 C.ar        1 MOL       0.0911
     27 O2         23.0009   16.8980   26.5094 O.3         1 MOL      -0.3214
     28 C23        23.8549   18.0558   26.5669 C.3         1 MOL       0.0593
     29 H1         30.5145   12.5055   21.4892 H           1 MOL       0.3068
     30 H2         31.7103   10.3519   21.8989 H           1 MOL       0.3199
     31 H3         30.7805    8.9729   22.1171 H           1 MOL       0.3199
     32 H4         27.0161    8.6744   21.8568 H           1 MOL       0.0484
     33 H5         28.4432    8.4139   22.8706 H           1 MOL       0.0484
     34 H6         28.5560    8.2510   21.1035 H           1 MOL       0.0484
     35 H7         29.4777   14.9153   20.6780 H           1 MOL       0.0795
     36 H8         29.1444   16.0445   18.6052 H           1 MOL       0.0681
     37 H9         27.6753   15.1125   16.9149 H           1 MOL       0.0806
     38 H10        26.5384   13.0070   17.3319 H           1 MOL       0.0681
     39 H11        26.8689   11.8370   19.3994 H           1 MOL       0.0795
     40 H12        30.1871   14.0813   23.0443 H           1 MOL       0.0796
     41 H13        29.8281   15.4174   24.9785 H           1 MOL       0.0682
     42 H14        27.6378   15.6002   25.9603 H           1 MOL       0.0813
     43 H15        26.1133   12.9805   23.0334 H           1 MOL       0.0801
     44 H16        22.0044   14.5693   26.9595 H           1 MOL       0.0545
     45 H17        25.3426   16.4936   25.2977 H           1 MOL       0.0544
     46 H18        25.0625   12.2679   25.2551 H           1 MOL       0.0532
     47 H19        22.9275   12.4158   26.3605 H           1 MOL       0.0590
     48 H20        23.2719   18.8921   26.9659 H           1 MOL       0.0577
     49 H21        24.2058   18.3332   25.5659 H           1 MOL       0.0577
     50 H22        24.7181   17.8968   27.2245 H           1 MOL       0.0577
@<TRIPOS>BOND
     1     2     1   2
     2     3     2   1
     3     2     6  am
     4     3     4   1
     5     3     9   1
     6    15     3   1
     7     4     5  ar
     8     5     6   1
     9     5     7  ar
    10     6     8   1
    11     9    10  ar
    12     9    14  ar
    13    10    11  ar
    14    11    12  ar
    15    13    12  ar
    16    14    13  ar
    17    15    16  ar
    18    20    15  ar
    19    17    16  ar
    20    18    17  ar
    21    19    18  ar
    22    19    20  ar
    23    23    19   1
    24    21    25  ar
    25    26    21  ar
    26    22    23  ar
    27    22    26  ar
    28    23    24  ar
    29    24    25  ar
    30    26    27   1
    31    27    28   1
    32     4    29   1
    33     7    30   1
    34     7    31   1
    35     8    32   1
    36     8    33   1
    37     8    34   1
    38    10    35   1
    39    11    36   1
    40    12    37   1
    41    13    38   1
    42    14    39   1
    43    16    40   1
    44    17    41   1
    45    18    42   1
    46    20    43   1
    47    21    44   1
    48    22    45   1
    49    24    46   1
    50    25    47   1
    51    28    48   1
    52    28    49   1
    53    28    50   1
@<TRIPOS>SUBSTRUCTURE
     1  MOL      2

