@<TRIPOS>MOLECULE
4djv_ligand_030
    50    53
SMALL
GAST_HUCK
****
This file was generated by PARSER (from files_GN.cpp)

@<TRIPOS>ATOM
      1 O1         17.1794    8.9052   22.7667 O.2         1 MOL      -0.3721
      2 C1         16.6986    9.9906   23.0465 C.2         1 MOL       0.1984
      3 C2         17.4775   11.2290   23.0546 C.3         1 MOL       0.1861
      4 N1         16.4282   12.1315   23.3942 N.pl3       1 MOL      -0.2773
      5 C3         15.2608   11.5038   23.5807 C.cat       1 MOL       0.3179
      6 N2         15.4286   10.1869   23.3686 N.am        1 MOL      -0.2211
      7 N3         14.1211   12.1307   23.9139 N.pl3       1 MOL      -0.2550
      8 C4         14.3847    9.2012   23.4477 C.3         1 MOL       0.0234
      9 C5         18.4842   11.3455   24.1877 C.ar        1 MOL      -0.0137
     10 C6         18.4418   10.5129   25.3296 C.ar        1 MOL      -0.0453
     11 C7         19.3848   10.6409   26.3774 C.ar        1 MOL      -0.0390
     12 C8         20.3933   11.6121   26.2925 C.ar        1 MOL      -0.0398
     13 C9         20.4358   12.4794   25.1878 C.ar        1 MOL      -0.0390
     14 C10        19.4815   12.3643   24.1656 C.ar        1 MOL      -0.0453
     15 C11        18.0010   11.4494   21.6519 C.ar        1 MOL      -0.0130
     16 C12        17.2087   12.0613   20.6487 C.ar        1 MOL      -0.0451
     17 C13        17.6896   12.2228   19.3350 C.ar        1 MOL      -0.0383
     18 C14        18.9800   11.7926   19.0024 C.ar        1 MOL      -0.0321
     19 C15        19.8155   11.1749   19.9663 C.ar        1 MOL       0.0021
     20 C16        19.2839   10.9763   21.2629 C.ar        1 MOL      -0.0377
     21 C17        23.8741   10.1426   19.0664 C.ar        1 MOL      -0.0329
     22 C18        21.7729    9.6514   20.1988 C.ar        1 MOL      -0.0254
     23 C19        21.1695   10.8123   19.6498 C.ar        1 MOL      -0.0214
     24 C20        21.9695   11.6342   18.8144 C.ar        1 MOL      -0.0645
     25 C21        23.2985   11.2959   18.5100 C.ar        1 MOL      -0.0697
     26 C22        23.1259    9.3328   19.9404 C.ar        1 MOL       0.0911
     27 O2         23.6888    8.2210   20.4997 O.3         1 MOL      -0.3214
     28 C23        24.3668    8.4919   21.7404 C.3         1 MOL       0.0593
     29 H1         16.5493   13.0907   23.4858 H           1 MOL       0.3068
     30 H2         14.1079   13.0951   24.0118 H           1 MOL       0.3199
     31 H3         13.3076   11.6181   24.0436 H           1 MOL       0.3199
     32 H4         14.7453    8.1950   23.2281 H           1 MOL       0.0484
     33 H5         13.6009    9.4414   22.7280 H           1 MOL       0.0484
     34 H6         13.9504    9.1963   24.4490 H           1 MOL       0.0484
     35 H7         17.7141    9.8044   25.4381 H           1 MOL       0.0795
     36 H8         19.3298   10.0313   27.1923 H           1 MOL       0.0681
     37 H9         21.0913   11.6909   27.0371 H           1 MOL       0.0806
     38 H10        21.1629   13.1987   25.1350 H           1 MOL       0.0681
     39 H11        19.5243   13.0266   23.3868 H           1 MOL       0.0795
     40 H12        16.2636   12.3848   20.8545 H           1 MOL       0.0796
     41 H13        17.0995   12.6674   18.6277 H           1 MOL       0.0682
     42 H14        19.3023   11.9410   18.0430 H           1 MOL       0.0813
     43 H15        19.8542   10.5041   21.9687 H           1 MOL       0.0801
     44 H16        24.8420    9.8957   18.8435 H           1 MOL       0.0545
     45 H17        21.2375    9.0152   20.7933 H           1 MOL       0.0544
     46 H18        21.5961   12.5034   18.4225 H           1 MOL       0.0532
     47 H19        23.8522   11.8935   17.8908 H           1 MOL       0.0590
     48 H20        24.8013    7.5572   22.0945 H           1 MOL       0.0577
     49 H21        23.6750    8.8562   22.5038 H           1 MOL       0.0577
     50 H22        25.1773    9.2139   21.6078 H           1 MOL       0.0577
@<TRIPOS>BOND
     1     2     1   2
     2     3     2   1
     3     2     6  am
     4     3     4   1
     5     3     9   1
     6    15     3   1
     7     4     5  ar
     8     5     6   1
     9     5     7  ar
    10     6     8   1
    11     9    10  ar
    12     9    14  ar
    13    10    11  ar
    14    11    12  ar
    15    13    12  ar
    16    14    13  ar
    17    15    16  ar
    18    20    15  ar
    19    17    16  ar
    20    18    17  ar
    21    19    18  ar
    22    19    20  ar
    23    23    19   1
    24    21    25  ar
    25    26    21  ar
    26    22    23  ar
    27    22    26  ar
    28    23    24  ar
    29    24    25  ar
    30    26    27   1
    31    27    28   1
    32     4    29   1
    33     7    30   1
    34     7    31   1
    35     8    32   1
    36     8    33   1
    37     8    34   1
    38    10    35   1
    39    11    36   1
    40    12    37   1
    41    13    38   1
    42    14    39   1
    43    16    40   1
    44    17    41   1
    45    18    42   1
    46    20    43   1
    47    21    44   1
    48    22    45   1
    49    24    46   1
    50    25    47   1
    51    28    48   1
    52    28    49   1
    53    28    50   1
@<TRIPOS>SUBSTRUCTURE
     1  MOL      2

