@<TRIPOS>MOLECULE
4djv_ligand_007
    50    53
SMALL
GAST_HUCK
****
This file was generated by PARSER (from files_GN.cpp)

@<TRIPOS>ATOM
      1 O1         18.1079   11.0265   26.7636 O.2         1 MOL      -0.3721
      2 C1         18.9121   10.5895   25.9486 C.2         1 MOL       0.1984
      3 C2         18.6711   10.6481   24.5104 C.3         1 MOL       0.1861
      4 N1         19.9157   10.0993   24.0818 N.pl3       1 MOL      -0.2773
      5 C3         20.7195    9.7806   25.1082 C.cat       1 MOL       0.3179
      6 N2         20.0961   10.1009   26.2520 N.am        1 MOL      -0.2211
      7 N3         21.9182    9.1976   24.9364 N.pl3       1 MOL      -0.2550
      8 C4         20.6758    9.9589   27.5622 C.3         1 MOL       0.0234
      9 C5         17.6249    9.7057   23.9568 C.ar        1 MOL      -0.0137
     10 C6         16.8171    8.8458   24.7441 C.ar        1 MOL      -0.0453
     11 C7         15.8841    7.9750   24.1585 C.ar        1 MOL      -0.0390
     12 C8         15.7277    7.9425   22.7679 C.ar        1 MOL      -0.0398
     13 C9         16.5082    8.7773   21.9562 C.ar        1 MOL      -0.0390
     14 C10        17.4510    9.6461   22.5482 C.ar        1 MOL      -0.0453
     15 C11        18.5218   12.0959   24.1006 C.ar        1 MOL      -0.0130
     16 C12        17.2546   12.6697   23.8436 C.ar        1 MOL      -0.0451
     17 C13        17.1135   14.0261   23.5114 C.ar        1 MOL      -0.0383
     18 C14        18.2378   14.8611   23.4721 C.ar        1 MOL      -0.0321
     19 C15        19.5218   14.3514   23.7599 C.ar        1 MOL       0.0021
     20 C16        19.6461   12.9731   24.0644 C.ar        1 MOL      -0.0377
     21 C17        22.9162   16.9188   23.8874 C.ar        1 MOL      -0.0329
     22 C18        20.6692   16.3498   24.6355 C.ar        1 MOL      -0.0254
     23 C19        20.6528   15.2157   23.7925 C.ar        1 MOL      -0.0214
     24 C20        21.7885   14.9462   22.9932 C.ar        1 MOL      -0.0645
     25 C21        22.9080   15.8005   23.0317 C.ar        1 MOL      -0.0697
     26 C22        21.8002   17.1872   24.7077 C.ar        1 MOL       0.0911
     27 O2         21.8212   18.2745   25.5366 O.3         1 MOL      -0.3214
     28 C23        22.1445   17.9478   26.9029 C.3         1 MOL       0.0593
     29 H1         20.1377    9.9366   23.1609 H           1 MOL       0.3068
     30 H2         22.2183    8.9597   24.0491 H           1 MOL       0.3199
     31 H3         22.4668    8.9768   25.7080 H           1 MOL       0.3199
     32 H4         19.9817   10.2581   28.3527 H           1 MOL       0.0484
     33 H5         21.5639   10.5869   27.6380 H           1 MOL       0.0484
     34 H6         20.9602    8.9190   27.7212 H           1 MOL       0.0484
     35 H7         16.9192    8.8299   25.7638 H           1 MOL       0.0795
     36 H8         15.3086    7.3496   24.7390 H           1 MOL       0.0681
     37 H9         15.0417    7.3109   22.3327 H           1 MOL       0.0806
     38 H10        16.4082    8.7558   20.9403 H           1 MOL       0.0681
     39 H11        18.0147   10.2302   21.9332 H           1 MOL       0.0795
     40 H12        16.4052   12.0989   23.9121 H           1 MOL       0.0796
     41 H13        16.1857   14.4135   23.3099 H           1 MOL       0.0682
     42 H14        18.1166   15.8546   23.2374 H           1 MOL       0.0813
     43 H15        20.5661   12.6158   24.3156 H           1 MOL       0.0801
     44 H16        23.7316   17.5292   23.9148 H           1 MOL       0.0545
     45 H17        19.8608   16.5611   25.2322 H           1 MOL       0.0544
     46 H18        21.8015   14.1416   22.3641 H           1 MOL       0.0532
     47 H19        23.7156   15.6104   22.4407 H           1 MOL       0.0590
     48 H20        22.2015   18.8770   27.4660 H           1 MOL       0.0577
     49 H21        23.1090   17.4403   26.9821 H           1 MOL       0.0577
     50 H22        21.3685   17.3237   27.3528 H           1 MOL       0.0577
@<TRIPOS>BOND
     1     2     1   2
     2     3     2   1
     3     2     6  am
     4     3     4   1
     5     3     9   1
     6    15     3   1
     7     4     5  ar
     8     5     6   1
     9     5     7  ar
    10     6     8   1
    11     9    10  ar
    12     9    14  ar
    13    10    11  ar
    14    11    12  ar
    15    13    12  ar
    16    14    13  ar
    17    15    16  ar
    18    20    15  ar
    19    17    16  ar
    20    18    17  ar
    21    19    18  ar
    22    19    20  ar
    23    23    19   1
    24    21    25  ar
    25    26    21  ar
    26    22    23  ar
    27    22    26  ar
    28    23    24  ar
    29    24    25  ar
    30    26    27   1
    31    27    28   1
    32     4    29   1
    33     7    30   1
    34     7    31   1
    35     8    32   1
    36     8    33   1
    37     8    34   1
    38    10    35   1
    39    11    36   1
    40    12    37   1
    41    13    38   1
    42    14    39   1
    43    16    40   1
    44    17    41   1
    45    18    42   1
    46    20    43   1
    47    21    44   1
    48    22    45   1
    49    24    46   1
    50    25    47   1
    51    28    48   1
    52    28    49   1
    53    28    50   1
@<TRIPOS>SUBSTRUCTURE
     1  MOL      2

