@<TRIPOS>MOLECULE
4djv_ligand_001
    50    53
SMALL
GAST_HUCK
****
This file was generated by PARSER (from files_GN.cpp)

@<TRIPOS>ATOM
      1 O1         18.3593   11.2819   25.6389 O.2         1 MOL      -0.3721
      2 C1         19.1900   10.6010   25.0481 C.2         1 MOL       0.1984
      3 C2         19.0579   10.2281   23.6296 C.3         1 MOL       0.1861
      4 N1         20.1326    9.2878   23.6046 N.pl3       1 MOL      -0.2773
      5 C3         20.8580    9.2857   24.7231 C.cat       1 MOL       0.3179
      6 N2         20.2605   10.0748   25.6226 N.am        1 MOL      -0.2211
      7 N3         21.9871    8.5702   24.8627 N.pl3       1 MOL      -0.2550
      8 C4         20.7182   10.2888   26.9645 C.3         1 MOL       0.0234
      9 C5         17.7776    9.4762   23.2878 C.ar        1 MOL      -0.0137
     10 C6         17.3406    9.2715   21.9523 C.ar        1 MOL      -0.0453
     11 C7         16.2220    8.4736   21.6383 C.ar        1 MOL      -0.0390
     12 C8         15.4954    7.8619   22.6644 C.ar        1 MOL      -0.0398
     13 C9         15.8808    8.0476   23.9969 C.ar        1 MOL      -0.0390
     14 C10        17.0097    8.8283   24.2956 C.ar        1 MOL      -0.0453
     15 C11        19.4461   11.3699   22.7043 C.ar        1 MOL      -0.0130
     16 C12        20.0164   11.0820   21.4382 C.ar        1 MOL      -0.0451
     17 C13        20.5092   12.0859   20.5952 C.ar        1 MOL      -0.0383
     18 C14        20.5285   13.4127   21.0380 C.ar        1 MOL      -0.0321
     19 C15        19.9979   13.7611   22.2988 C.ar        1 MOL       0.0021
     20 C16        19.4148   12.7395   23.0867 C.ar        1 MOL      -0.0377
     21 C17        20.6348   17.6419   23.9394 C.ar        1 MOL      -0.0329
     22 C18        19.1121   15.8308   23.3511 C.ar        1 MOL      -0.0254
     23 C19        20.1862   15.0731   22.8280 C.ar        1 MOL      -0.0214
     24 C20        21.4927   15.6178   22.9015 C.ar        1 MOL      -0.0645
     25 C21        21.7149   16.8908   23.4518 C.ar        1 MOL      -0.0697
     26 C22        19.3285   17.1111   23.9028 C.ar        1 MOL       0.0911
     27 O2         18.2627   17.8558   24.3233 O.3         1 MOL      -0.3214
     28 C23        18.1200   17.9249   25.7516 C.3         1 MOL       0.0593
     29 H1         20.3867    8.7800   22.8134 H           1 MOL       0.3068
     30 H2         22.2914    7.9944   24.1429 H           1 MOL       0.3199
     31 H3         22.4937    8.6074   25.6867 H           1 MOL       0.3199
     32 H4         20.0341   10.9264   27.5391 H           1 MOL       0.0484
     33 H5         21.6962   10.7769   26.9488 H           1 MOL       0.0484
     34 H6         20.8094    9.3356   27.4881 H           1 MOL       0.0484
     35 H7         17.8309    9.6788   21.1610 H           1 MOL       0.0795
     36 H8         15.9517    8.3309   20.6582 H           1 MOL       0.0681
     37 H9         14.6891    7.2760   22.4373 H           1 MOL       0.0806
     38 H10        15.3496    7.5991   24.7470 H           1 MOL       0.0681
     39 H11        17.2686    8.8975   25.2744 H           1 MOL       0.0795
     40 H12        20.1111   10.1164   21.1244 H           1 MOL       0.0796
     41 H13        20.8980   11.8383   19.6788 H           1 MOL       0.0682
     42 H14        20.9728   14.1113   20.4455 H           1 MOL       0.0813
     43 H15        19.0436   12.9995   23.9989 H           1 MOL       0.0801
     44 H16        20.8063   18.5697   24.3384 H           1 MOL       0.0545
     45 H17        18.1588   15.4605   23.3312 H           1 MOL       0.0544
     46 H18        22.2982   15.0731   22.5835 H           1 MOL       0.0532
     47 H19        22.6660   17.2625   23.5081 H           1 MOL       0.0590
     48 H20        17.2349   18.5162   25.9797 H           1 MOL       0.0577
     49 H21        18.9793   18.4165   26.2110 H           1 MOL       0.0577
     50 H22        17.9921   16.9325   26.1888 H           1 MOL       0.0577
@<TRIPOS>BOND
     1     2     1   2
     2     3     2   1
     3     2     6  am
     4     3     4   1
     5     3     9   1
     6    15     3   1
     7     4     5  ar
     8     5     6   1
     9     5     7  ar
    10     6     8   1
    11     9    10  ar
    12     9    14  ar
    13    10    11  ar
    14    11    12  ar
    15    13    12  ar
    16    14    13  ar
    17    15    16  ar
    18    20    15  ar
    19    17    16  ar
    20    18    17  ar
    21    19    18  ar
    22    19    20  ar
    23    23    19   1
    24    21    25  ar
    25    26    21  ar
    26    22    23  ar
    27    22    26  ar
    28    23    24  ar
    29    24    25  ar
    30    26    27   1
    31    27    28   1
    32     4    29   1
    33     7    30   1
    34     7    31   1
    35     8    32   1
    36     8    33   1
    37     8    34   1
    38    10    35   1
    39    11    36   1
    40    12    37   1
    41    13    38   1
    42    14    39   1
    43    16    40   1
    44    17    41   1
    45    18    42   1
    46    20    43   1
    47    21    44   1
    48    22    45   1
    49    24    46   1
    50    25    47   1
    51    28    48   1
    52    28    49   1
    53    28    50   1
@<TRIPOS>SUBSTRUCTURE
     1  MOL      2

