@<TRIPOS>MOLECULE
4g8m_ligand_013
    22    22
SMALL
GAST_HUCK
****
This file was generated by PARSER (from files_GN.cpp)

@<TRIPOS>ATOM
      1 CD          7.5143   25.6179   21.5371 C.2         1 G8M       0.0384
      2 OE1         6.8475   24.4817   21.2047 O.co2       1 G8M      -0.5687
      3 OE2         7.6142   25.9545   22.8493 O.co2       1 G8M      -0.5687
      4 CG          8.0615   26.5203   20.4969 C.3         1 G8M       0.0213
      5 C           4.9965   26.3345   20.6627 C.2         1 G8M       0.0848
      6 OXT         5.0550   27.2890   21.6322 O.co2       1 G8M      -0.5642
      7 O           4.3715   25.1842   20.9606 O.co2       1 G8M      -0.5642
      8 CA          5.5830   26.5654   19.3271 C.3         1 G8M       0.0330
      9 N           4.8179   27.6314   18.6718 N.4         1 G8M       0.2330
     10 CB          7.0933   26.9507   19.3509 C.3         1 G8M       0.0284
     11 C6          7.9737   26.1711   18.3439 C.3         1 G8M      -0.0399
     12 C7          8.9937   25.8671   19.4658 C.3         1 G8M      -0.0374
     13 H1          8.5171   27.4094   20.9555 H           1 G8M       0.0472
     14 H2          5.4492   25.6440   18.7487 H           1 G8M       0.1028
     15 H3          3.8235   27.4241   18.7200 H           1 G8M       0.2010
     16 H4          5.1233   27.6925   17.6926 H           1 G8M       0.2010
     17 H5          4.9996   28.5208   19.1521 H           1 G8M       0.2010
     18 H6          7.2088   28.0355   19.1891 H           1 G8M       0.0395
     19 H7          8.3896   26.7835   17.5435 H           1 G8M       0.0273
     20 H8          7.5385   25.2564   17.9546 H           1 G8M       0.0273
     21 H9          9.2035   24.8101   19.6087 H           1 G8M       0.0286
     22 H10         9.9316   26.4407   19.3373 H           1 G8M       0.0286
@<TRIPOS>BOND
     1     1     2  ar
     2     1     3  ar
     3     4     1   1
     4    10     4   1
     5     4    12   1
     6     5     6  ar
     7     5     7  ar
     8     8     5   1
     9     8     9   1
    10     8    10   1
    11    10    11   1
    12    11    12   1
    13     4    13   1
    14     8    14   1
    15     9    15   1
    16     9    16   1
    17     9    17   1
    18    10    18   1
    19    11    19   1
    20    11    20   1
    21    12    21   1
    22    12    22   1
@<TRIPOS>SUBSTRUCTURE
     1  G8M      1

