@<TRIPOS>MOLECULE
4g8m_ligand_011
    22    22
SMALL
GAST_HUCK
****
This file was generated by PARSER (from files_GN.cpp)

@<TRIPOS>ATOM
      1 CD          5.8570   26.8128   18.0574 C.2         1 G8M       0.0384
      2 OE1         4.9081   27.6884   17.6493 O.co2       1 G8M      -0.5687
      3 OE2         5.9180   25.6226   17.4209 O.co2       1 G8M      -0.5687
      4 CG          6.4848   26.9970   19.3799 C.3         1 G8M       0.0213
      5 C           8.8319   26.2716   17.3692 C.2         1 G8M       0.0848
      6 OXT         8.6139   25.6540   16.1838 O.co2       1 G8M      -0.5642
      7 O           9.4063   27.4849   17.3666 O.co2       1 G8M      -0.5642
      8 CA          8.6708   25.5305   18.6336 C.3         1 G8M       0.0330
      9 N          10.0172   25.2327   19.1347 N.4         1 G8M       0.2330
     10 CB          7.8639   26.3428   19.6995 C.3         1 G8M       0.0284
     11 C6          7.1855   25.4944   20.7977 C.3         1 G8M      -0.0399
     12 C7          5.8324   26.1631   20.5089 C.3         1 G8M      -0.0374
     13 H1          6.4968   28.0554   19.6457 H           1 G8M       0.0472
     14 H2          8.1721   24.5762   18.4327 H           1 G8M       0.1028
     15 H3         10.4868   24.5740   18.5086 H           1 G8M       0.2010
     16 H4          9.9554   24.8087   20.0549 H           1 G8M       0.2010
     17 H5         10.5669   26.0930   19.1803 H           1 G8M       0.2010
     18 H6          8.5213   27.0916   20.1572 H           1 G8M       0.0395
     19 H7          7.5574   25.7054   21.8043 H           1 G8M       0.0273
     20 H8          7.1601   24.4159   20.5909 H           1 G8M       0.0273
     21 H9          5.0701   25.4530   20.1737 H           1 G8M       0.0286
     22 H10         5.4777   26.7831   21.3351 H           1 G8M       0.0286
@<TRIPOS>BOND
     1     1     2  ar
     2     1     3  ar
     3     4     1   1
     4    10     4   1
     5     4    12   1
     6     5     6  ar
     7     5     7  ar
     8     8     5   1
     9     8     9   1
    10     8    10   1
    11    10    11   1
    12    11    12   1
    13     4    13   1
    14     8    14   1
    15     9    15   1
    16     9    16   1
    17     9    17   1
    18    10    18   1
    19    11    19   1
    20    11    20   1
    21    12    21   1
    22    12    22   1
@<TRIPOS>SUBSTRUCTURE
     1  G8M      1

