@<TRIPOS>MOLECULE
4g8m_ligand_018
    22    22
SMALL
GAST_HUCK
****
This file was generated by PARSER (from files_GN.cpp)

@<TRIPOS>ATOM
      1 CD          6.7062   25.3347   19.2602 C.2         1 G8M       0.0384
      2 OE1         5.7345   24.6347   19.8887 O.co2       1 G8M      -0.5687
      3 OE2         6.6278   25.4547   17.9133 O.co2       1 G8M      -0.5687
      4 CG          7.9597   25.6085   19.9851 C.3         1 G8M       0.0213
      5 C           6.2362   28.4527   20.6091 C.2         1 G8M       0.0848
      6 OXT         6.1896   29.7719   20.8773 O.co2       1 G8M      -0.5642
      7 O           5.6198   28.0139   19.4891 O.co2       1 G8M      -0.5642
      8 CA          6.7906   27.5118   21.6063 C.3         1 G8M       0.0330
      9 N           5.7051   26.6900   22.1583 N.4         1 G8M       0.2330
     10 CB          8.0026   26.6326   21.1581 C.3         1 G8M       0.0284
     11 C6          9.1574   27.3797   20.4456 C.3         1 G8M      -0.0399
     12 C7          9.0711   26.4015   19.2601 C.3         1 G8M      -0.0374
     13 H1          8.3610   24.6472   20.3066 H           1 G8M       0.0472
     14 H2          7.1545   28.1156   22.4450 H           1 G8M       0.1028
     15 H3          5.0159   27.2945   22.6113 H           1 G8M       0.2010
     16 H4          6.0810   26.0436   22.8554 H           1 G8M       0.2010
     17 H5          5.2502   26.1604   21.4147 H           1 G8M       0.2010
     18 H6          8.3961   26.1381   22.0528 H           1 G8M       0.0395
     19 H7         10.1103   27.3132   20.9771 H           1 G8M       0.0273
     20 H8          8.9339   28.4065   20.1528 H           1 G8M       0.0273
     21 H9          8.7537   26.8964   18.3385 H           1 G8M       0.0286
     22 H10         9.9870   25.8210   19.1193 H           1 G8M       0.0286
@<TRIPOS>BOND
     1     1     2  ar
     2     1     3  ar
     3     4     1   1
     4    10     4   1
     5     4    12   1
     6     5     6  ar
     7     5     7  ar
     8     8     5   1
     9     8     9   1
    10     8    10   1
    11    10    11   1
    12    11    12   1
    13     4    13   1
    14     8    14   1
    15     9    15   1
    16     9    16   1
    17     9    17   1
    18    10    18   1
    19    11    19   1
    20    11    20   1
    21    12    21   1
    22    12    22   1
@<TRIPOS>SUBSTRUCTURE
     1  G8M      1

