@<TRIPOS>MOLECULE
4g8m_ligand_012
    22    22
SMALL
GAST_HUCK
****
This file was generated by PARSER (from files_GN.cpp)

@<TRIPOS>ATOM
      1 CD          7.6500   25.8628   22.1008 C.2         1 G8M       0.0384
      2 OE1         7.8536   25.8336   23.4444 O.co2       1 G8M      -0.5687
      3 OE2         7.0005   24.8186   21.5380 O.co2       1 G8M      -0.5687
      4 CG          8.2770   26.9220   21.2844 C.3         1 G8M       0.0213
      5 C           5.9036   25.9392   19.0302 C.2         1 G8M       0.0848
      6 OXT         5.3571   24.8519   19.6249 O.co2       1 G8M      -0.5642
      7 O           5.9011   25.9436   17.6715 O.co2       1 G8M      -0.5642
      8 CA          6.0254   27.2214   19.7661 C.3         1 G8M       0.0330
      9 N           5.1483   27.2289   20.9493 N.4         1 G8M       0.2330
     10 CB          7.4735   27.6647   20.1736 C.3         1 G8M       0.0284
     11 C6          8.6267   27.3687   19.1799 C.3         1 G8M      -0.0399
     12 C7          9.3113   26.4810   20.2277 C.3         1 G8M      -0.0374
     13 H1          8.7380   27.6580   21.9479 H           1 G8M       0.0472
     14 H2          5.6342   27.9957   19.1008 H           1 G8M       0.1028
     15 H3          4.1769   27.1548   20.6430 H           1 G8M       0.2010
     16 H4          5.2800   28.0966   21.4687 H           1 G8M       0.2010
     17 H5          5.3713   26.4355   21.5520 H           1 G8M       0.2010
     18 H6          7.4534   28.7434   20.3991 H           1 G8M       0.0395
     19 H7          9.2377   28.2507   18.9535 H           1 G8M       0.0273
     20 H8          8.3534   26.8375   18.2714 H           1 G8M       0.0273
     21 H9          9.2560   25.4316   19.9468 H           1 G8M       0.0286
     22 H10        10.3363   26.7965   20.4472 H           1 G8M       0.0286
@<TRIPOS>BOND
     1     1     2  ar
     2     1     3  ar
     3     4     1   1
     4    10     4   1
     5     4    12   1
     6     5     6  ar
     7     5     7  ar
     8     8     5   1
     9     8     9   1
    10     8    10   1
    11    10    11   1
    12    11    12   1
    13     4    13   1
    14     8    14   1
    15     9    15   1
    16     9    16   1
    17     9    17   1
    18    10    18   1
    19    11    19   1
    20    11    20   1
    21    12    21   1
    22    12    22   1
@<TRIPOS>SUBSTRUCTURE
     1  G8M      1

