@<TRIPOS>MOLECULE
4g8m_ligand_004
    22    22
SMALL
GAST_HUCK
****
This file was generated by PARSER (from files_GN.cpp)

@<TRIPOS>ATOM
      1 CD          7.1054   26.0810   21.3643 C.2         1 G8M       0.0384
      2 OE1         7.0998   24.7279   21.4257 O.co2       1 G8M      -0.5687
      3 OE2         8.2953   26.7113   21.2562 O.co2       1 G8M      -0.5687
      4 CG          5.8590   26.8678   21.2010 C.3         1 G8M       0.0213
      5 C           6.0470   27.2707   24.5281 C.2         1 G8M       0.0848
      6 OXT         7.3462   26.9721   24.7463 O.co2       1 G8M      -0.5642
      7 O           5.6381   28.5352   24.7897 O.co2       1 G8M      -0.5642
      8 CA          5.1769   26.3420   23.7721 C.3         1 G8M       0.0330
      9 N           3.9492   26.0978   24.5466 N.4         1 G8M       0.2330
     10 CB          4.8270   26.9248   22.3663 C.3         1 G8M       0.0284
     11 C6          3.8235   26.1399   21.4886 C.3         1 G8M      -0.0399
     12 C7          4.7957   26.1998   20.3000 C.3         1 G8M      -0.0374
     13 H1          6.0949   27.8770   20.8455 H           1 G8M       0.0472
     14 H2          5.6822   25.3804   23.6611 H           1 G8M       0.1028
     15 H3          4.1741   25.7414   25.4789 H           1 G8M       0.2010
     16 H4          3.3806   25.4014   24.0591 H           1 G8M       0.2010
     17 H5          3.4183   26.9688   24.6353 H           1 G8M       0.2010
     18 H6          4.4587   27.9496   22.4855 H           1 G8M       0.0395
     19 H7          2.8926   26.6783   21.2963 H           1 G8M       0.0273
     20 H8          3.6430   25.1182   21.8279 H           1 G8M       0.0273
     21 H9          5.0603   25.2100   19.9238 H           1 G8M       0.0286
     22 H10         4.4435   26.8564   19.5001 H           1 G8M       0.0286
@<TRIPOS>BOND
     1     1     2  ar
     2     1     3  ar
     3     4     1   1
     4    10     4   1
     5     4    12   1
     6     5     6  ar
     7     5     7  ar
     8     8     5   1
     9     8     9   1
    10     8    10   1
    11    10    11   1
    12    11    12   1
    13     4    13   1
    14     8    14   1
    15     9    15   1
    16     9    16   1
    17     9    17   1
    18    10    18   1
    19    11    19   1
    20    11    20   1
    21    12    21   1
    22    12    22   1
@<TRIPOS>SUBSTRUCTURE
     1  G8M      1

