@<TRIPOS>MOLECULE
4g8m_ligand_020
    22    22
SMALL
GAST_HUCK
****
This file was generated by PARSER (from files_GN.cpp)

@<TRIPOS>ATOM
      1 CD          6.7902   26.6080   23.5791 C.2         1 G8M       0.0384
      2 OE1         7.4775   25.7087   22.8358 O.co2       1 G8M      -0.5687
      3 OE2         6.8154   26.4827   24.9244 O.co2       1 G8M      -0.5687
      4 CG          6.2507   27.8454   22.9831 C.3         1 G8M       0.0213
      5 C           3.9226   25.7510   21.5645 C.2         1 G8M       0.0848
      6 OXT         3.2307   24.8196   20.8601 O.co2       1 G8M      -0.5642
      7 O           3.5118   25.9993   22.8239 O.co2       1 G8M      -0.5642
      8 CA          5.0735   26.4589   20.9433 C.3         1 G8M       0.0330
      9 N           4.7705   26.7158   19.5243 N.4         1 G8M       0.2330
     10 CB          5.4408   27.7993   21.6578 C.3         1 G8M       0.0284
     11 C6          6.5330   28.6699   20.9911 C.3         1 G8M      -0.0399
     12 C7          7.3040   28.7559   22.3179 C.3         1 G8M      -0.0374
     13 H1          5.6991   28.4044   23.7510 H           1 G8M       0.0472
     14 H2          5.9359   25.7853   20.9751 H           1 G8M       0.1028
     15 H3          4.6976   25.8315   19.0317 H           1 G8M       0.2010
     16 H4          5.5236   27.2615   19.1030 H           1 G8M       0.2010
     17 H5          3.8939   27.2247   19.4200 H           1 G8M       0.2010
     18 H6          4.5308   28.3945   21.7823 H           1 G8M       0.0395
     19 H7          6.1645   29.6390   20.6557 H           1 G8M       0.0273
     20 H8          7.1061   28.1520   20.2170 H           1 G8M       0.0273
     21 H9          8.3126   28.3297   22.2523 H           1 G8M       0.0286
     22 H10         7.3133   29.7659   22.7312 H           1 G8M       0.0286
@<TRIPOS>BOND
     1     1     2  ar
     2     1     3  ar
     3     4     1   1
     4    10     4   1
     5     4    12   1
     6     5     6  ar
     7     5     7  ar
     8     8     5   1
     9     8     9   1
    10     8    10   1
    11    10    11   1
    12    11    12   1
    13     4    13   1
    14     8    14   1
    15     9    15   1
    16     9    16   1
    17     9    17   1
    18    10    18   1
    19    11    19   1
    20    11    20   1
    21    12    21   1
    22    12    22   1
@<TRIPOS>SUBSTRUCTURE
     1  G8M      1

