@<TRIPOS>MOLECULE
4g8m_ligand_015
    22    22
SMALL
GAST_HUCK
****
This file was generated by PARSER (from files_GN.cpp)

@<TRIPOS>ATOM
      1 CD          6.8010   27.8874   22.0144 C.2         1 G8M       0.0384
      2 OE1         7.8303   28.3124   21.2457 O.co2       1 G8M      -0.5687
      3 OE2         6.7276   28.4539   23.2398 O.co2       1 G8M      -0.5687
      4 CG          6.2305   26.5298   21.8134 C.3         1 G8M       0.0213
      5 C           7.0314   26.4648   18.3231 C.2         1 G8M       0.0848
      6 OXT         8.2785   26.9694   18.4403 O.co2       1 G8M      -0.5642
      7 O           6.8065   25.5009   17.3971 O.co2       1 G8M      -0.5642
      8 CA          5.9222   26.9975   19.1410 C.3         1 G8M       0.0330
      9 N           4.7402   27.1114   18.2786 N.4         1 G8M       0.2330
     10 CB          5.6821   26.1067   20.4112 C.3         1 G8M       0.0284
     11 C6          4.2509   26.0828   20.9964 C.3         1 G8M      -0.0399
     12 C7          4.8058   26.3577   22.3994 C.3         1 G8M      -0.0374
     13 H1          6.9199   25.7770   22.2183 H           1 G8M       0.0472
     14 H2          6.1496   28.0210   19.4261 H           1 G8M       0.1028
     15 H3          4.9646   27.6811   17.4599 H           1 G8M       0.2010
     16 H4          3.9650   27.5442   18.7695 H           1 G8M       0.2010
     17 H5          4.4655   26.1820   17.9806 H           1 G8M       0.2010
     18 H6          5.9806   25.0674   20.2061 H           1 G8M       0.0395
     19 H7          3.7573   25.1139   20.8994 H           1 G8M       0.0273
     20 H8          3.6097   26.8954   20.6590 H           1 G8M       0.0273
     21 H9          4.3675   27.2538   22.8468 H           1 G8M       0.0286
     22 H10         4.7175   25.4890   23.0529 H           1 G8M       0.0286
@<TRIPOS>BOND
     1     1     2  ar
     2     1     3  ar
     3     4     1   1
     4    10     4   1
     5     4    12   1
     6     5     6  ar
     7     5     7  ar
     8     8     5   1
     9     8     9   1
    10     8    10   1
    11    10    11   1
    12    11    12   1
    13     4    13   1
    14     8    14   1
    15     9    15   1
    16     9    16   1
    17     9    17   1
    18    10    18   1
    19    11    19   1
    20    11    20   1
    21    12    21   1
    22    12    22   1
@<TRIPOS>SUBSTRUCTURE
     1  G8M      1

