@<TRIPOS>MOLECULE
4g8m_ligand_003
    22    22
SMALL
GAST_HUCK
****
This file was generated by PARSER (from files_GN.cpp)

@<TRIPOS>ATOM
      1 CD          6.2861   26.8325   22.8329 C.2         1 G8M       0.0384
      2 OE1         5.0434   26.3175   22.6981 O.co2       1 G8M      -0.5687
      3 OE2         7.1003   26.3107   23.7848 O.co2       1 G8M      -0.5687
      4 CG          6.7533   27.8624   21.8690 C.3         1 G8M       0.0213
      5 C           6.7010   25.3395   19.6631 C.2         1 G8M       0.0848
      6 OXT         5.8264   24.5028   20.2729 O.co2       1 G8M      -0.5642
      7 O           6.4935   25.6615   18.3597 O.co2       1 G8M      -0.5642
      8 CA          7.8567   25.9039   20.3896 C.3         1 G8M       0.0330
      9 N           9.0730   25.6713   19.5892 N.4         1 G8M       0.2330
     10 CB          7.6566   27.4178   20.6823 C.3         1 G8M       0.0284
     11 C6          8.8488   28.1406   21.3414 C.3         1 G8M      -0.0399
     12 C7          7.9019   28.7631   22.3861 C.3         1 G8M      -0.0374
     13 H1          5.9193   28.4573   21.5059 H           1 G8M       0.0472
     14 H2          7.9772   25.3633   21.3262 H           1 G8M       0.1028
     15 H3          9.2584   24.6683   19.5620 H           1 G8M       0.2010
     16 H4          9.8710   26.1473   20.0185 H           1 G8M       0.2010
     17 H5          8.9489   26.0169   18.6406 H           1 G8M       0.2010
     18 H6          7.3696   27.9396   19.7699 H           1 G8M       0.0395
     19 H7          9.3287   28.8730   20.6829 H           1 G8M       0.0273
     20 H8          9.5706   27.4487   21.7945 H           1 G8M       0.0273
     21 H9          8.2018   28.5823   23.4242 H           1 G8M       0.0286
     22 H10         7.7024   29.8219   22.1942 H           1 G8M       0.0286
@<TRIPOS>BOND
     1     1     2  ar
     2     1     3  ar
     3     4     1   1
     4    10     4   1
     5     4    12   1
     6     5     6  ar
     7     5     7  ar
     8     8     5   1
     9     8     9   1
    10     8    10   1
    11    10    11   1
    12    11    12   1
    13     4    13   1
    14     8    14   1
    15     9    15   1
    16     9    16   1
    17     9    17   1
    18    10    18   1
    19    11    19   1
    20    11    20   1
    21    12    21   1
    22    12    22   1
@<TRIPOS>SUBSTRUCTURE
     1  G8M      1

