@<TRIPOS>MOLECULE
4g8m_ligand_016
    22    22
SMALL
GAST_HUCK
****
This file was generated by PARSER (from files_GN.cpp)

@<TRIPOS>ATOM
      1 CD          6.4695   27.8579   23.9805 C.2         1 G8M       0.0384
      2 OE1         7.7594   28.2694   24.0260 O.co2       1 G8M      -0.5687
      3 OE2         5.5604   28.5714   24.6834 O.co2       1 G8M      -0.5687
      4 CG          6.1458   26.5326   23.3951 C.3         1 G8M       0.0213
      5 C           7.3018   28.2064   20.7286 C.2         1 G8M       0.0848
      6 OXT         8.0478   27.6760   19.7284 O.co2       1 G8M      -0.5642
      7 O           7.7984   29.2694   21.4148 O.co2       1 G8M      -0.5642
      8 CA          5.9172   27.7366   20.9793 C.3         1 G8M       0.0330
      9 N           5.2708   27.4922   19.6735 N.4         1 G8M       0.2330
     10 CB          5.8640   26.4549   21.8630 C.3         1 G8M       0.0284
     11 C6          4.4419   25.9449   22.1778 C.3         1 G8M      -0.0399
     12 C7          4.7424   25.9618   23.6914 C.3         1 G8M      -0.0374
     13 H1          6.9167   25.8093   23.6857 H           1 G8M       0.0472
     14 H2          5.3713   28.5302   21.4776 H           1 G8M       0.1028
     15 H3          5.2887   28.3471   19.1145 H           1 G8M       0.2010
     16 H4          4.2937   27.2116   19.8032 H           1 G8M       0.2010
     17 H5          5.7660   26.7516   19.1763 H           1 G8M       0.2010
     18 H6          6.4520   25.6530   21.4062 H           1 G8M       0.0395
     19 H7          4.2331   24.9476   21.7860 H           1 G8M       0.0273
     20 H8          3.6406   26.6483   21.9141 H           1 G8M       0.0273
     21 H9          4.0611   26.6198   24.2351 H           1 G8M       0.0286
     22 H10         4.7795   24.9570   24.1231 H           1 G8M       0.0286
@<TRIPOS>BOND
     1     1     2  ar
     2     1     3  ar
     3     4     1   1
     4    10     4   1
     5     4    12   1
     6     5     6  ar
     7     5     7  ar
     8     8     5   1
     9     8     9   1
    10     8    10   1
    11    10    11   1
    12    11    12   1
    13     4    13   1
    14     8    14   1
    15     9    15   1
    16     9    16   1
    17     9    17   1
    18    10    18   1
    19    11    19   1
    20    11    20   1
    21    12    21   1
    22    12    22   1
@<TRIPOS>SUBSTRUCTURE
     1  G8M      1

