@<TRIPOS>MOLECULE
4g8m_ligand_014
    22    22
SMALL
GAST_HUCK
****
This file was generated by PARSER (from files_GN.cpp)

@<TRIPOS>ATOM
      1 CD          4.7090   25.8631   20.8187 C.2         1 G8M       0.0384
      2 OE1         3.7222   24.9556   20.6184 O.co2       1 G8M      -0.5687
      3 OE2         4.3683   27.0267   21.4117 O.co2       1 G8M      -0.5687
      4 CG          5.9752   25.7149   20.0556 C.3         1 G8M       0.0213
      5 C           7.1702   26.2538   23.1091 C.2         1 G8M       0.0848
      6 OXT         6.7127   24.9901   23.0197 O.co2       1 G8M      -0.5642
      7 O           7.3349   26.7803   24.3511 O.co2       1 G8M      -0.5642
      8 CA          7.4337   27.0951   21.9175 C.3         1 G8M       0.0330
      9 N           8.7920   27.6500   22.0425 N.4         1 G8M       0.2330
     10 CB          7.3163   26.3326   20.5544 C.3         1 G8M       0.0284
     11 C6          7.3443   27.2313   19.2935 C.3         1 G8M      -0.0399
     12 C7          6.0621   26.5680   18.7691 C.3         1 G8M      -0.0374
     13 H1          6.1253   24.6613   19.8145 H           1 G8M       0.0472
     14 H2          6.7438   27.9399   21.9308 H           1 G8M       0.1028
     15 H3          8.7963   28.3283   22.8066 H           1 G8M       0.2010
     16 H4          9.0647   28.1174   21.1807 H           1 G8M       0.2010
     17 H5          9.4609   26.9029   22.2473 H           1 G8M       0.2010
     18 H6          8.1141   25.5853   20.4844 H           1 G8M       0.0395
     19 H7          8.2119   27.0684   18.6460 H           1 G8M       0.0273
     20 H8          7.2018   28.2929   19.5037 H           1 G8M       0.0273
     21 H9          5.2440   27.2733   18.6293 H           1 G8M       0.0286
     22 H10         6.2400   25.9747   17.8695 H           1 G8M       0.0286
@<TRIPOS>BOND
     1     1     2  ar
     2     1     3  ar
     3     4     1   1
     4    10     4   1
     5     4    12   1
     6     5     6  ar
     7     5     7  ar
     8     8     5   1
     9     8     9   1
    10     8    10   1
    11    10    11   1
    12    11    12   1
    13     4    13   1
    14     8    14   1
    15     9    15   1
    16     9    16   1
    17     9    17   1
    18    10    18   1
    19    11    19   1
    20    11    20   1
    21    12    21   1
    22    12    22   1
@<TRIPOS>SUBSTRUCTURE
     1  G8M      1

