@<TRIPOS>MOLECULE
4g8m_ligand_006
    22    22
SMALL
GAST_HUCK
****
This file was generated by PARSER (from files_GN.cpp)

@<TRIPOS>ATOM
      1 CD          5.8846   26.0597   19.5626 C.2         1 G8M       0.0384
      2 OE1         5.7082   27.3453   19.1662 O.co2       1 G8M      -0.5687
      3 OE2         4.8139   25.3555   19.9991 O.co2       1 G8M      -0.5687
      4 CG          7.1857   25.3664   19.3942 C.3         1 G8M       0.0213
      5 C           7.9129   27.9541   21.3443 C.2         1 G8M       0.0848
      6 OXT         7.2155   27.0728   22.0988 O.co2       1 G8M      -0.5642
      7 O           7.8583   29.2649   21.6631 O.co2       1 G8M      -0.5642
      8 CA          8.6584   27.5517   20.1343 C.3         1 G8M       0.0330
      9 N          10.0795   27.8485   20.3785 N.4         1 G8M       0.2330
     10 CB          8.5455   26.0558   19.7010 C.3         1 G8M       0.0284
     11 C6          8.9901   25.7915   18.2416 C.3         1 G8M      -0.0399
     12 C7          7.6382   25.1254   17.9385 C.3         1 G8M      -0.0374
     13 H1          7.1398   24.4124   19.9210 H           1 G8M       0.0472
     14 H2          8.3110   28.1858   19.3207 H           1 G8M       0.1028
     15 H3         10.1914   28.8170   20.6835 H           1 G8M       0.2010
     16 H4         10.6222   27.7093   19.5238 H           1 G8M       0.2010
     17 H5         10.4362   27.2128   21.1059 H           1 G8M       0.2010
     18 H6          9.1323   25.4340   20.3748 H           1 G8M       0.0395
     19 H7          9.8308   25.0968   18.1675 H           1 G8M       0.0273
     20 H8          9.1546   26.6811   17.6244 H           1 G8M       0.0273
     21 H9          7.0565   25.6803   17.1971 H           1 G8M       0.0286
     22 H10         7.7374   24.0667   17.6812 H           1 G8M       0.0286
@<TRIPOS>BOND
     1     1     2  ar
     2     1     3  ar
     3     4     1   1
     4    10     4   1
     5     4    12   1
     6     5     6  ar
     7     5     7  ar
     8     8     5   1
     9     8     9   1
    10     8    10   1
    11    10    11   1
    12    11    12   1
    13     4    13   1
    14     8    14   1
    15     9    15   1
    16     9    16   1
    17     9    17   1
    18    10    18   1
    19    11    19   1
    20    11    20   1
    21    12    21   1
    22    12    22   1
@<TRIPOS>SUBSTRUCTURE
     1  G8M      1

