@<TRIPOS>MOLECULE
4g8m_ligand_010
    22    22
SMALL
GAST_HUCK
****
This file was generated by PARSER (from files_GN.cpp)

@<TRIPOS>ATOM
      1 CD          8.3250   28.1979   21.7601 C.2         1 G8M       0.0384
      2 OE1         8.6640   27.6944   20.5517 O.co2       1 G8M      -0.5687
      3 OE2         8.4418   29.5339   21.9437 O.co2       1 G8M      -0.5687
      4 CG          7.9670   27.2731   22.8568 C.3         1 G8M       0.0213
      5 C           6.0344   25.9364   20.4079 C.2         1 G8M       0.0848
      6 OXT         5.6952   24.6219   20.3954 O.co2       1 G8M      -0.5642
      7 O           6.4225   26.4966   19.2391 O.co2       1 G8M      -0.5642
      8 CA          5.6514   26.7706   21.5590 C.3         1 G8M       0.0330
      9 N           4.2602   26.4357   21.8911 N.4         1 G8M       0.2330
     10 CB          6.5975   26.5416   22.7836 C.3         1 G8M       0.0284
     11 C6          6.1667   27.2410   24.0985 C.3         1 G8M      -0.0399
     12 C7          7.5497   27.8968   24.2119 C.3         1 G8M      -0.0374
     13 H1          8.7864   26.5630   23.0109 H           1 G8M       0.0472
     14 H2          5.6729   27.8281   21.2684 H           1 G8M       0.1028
     15 H3          3.6674   26.5485   21.0621 H           1 G8M       0.2010
     16 H4          3.9231   27.0565   22.6314 H           1 G8M       0.2010
     17 H5          4.2059   25.4676   22.2182 H           1 G8M       0.2010
     18 H6          6.7232   25.4711   22.9653 H           1 G8M       0.0395
     19 H7          5.9664   26.5471   24.9155 H           1 G8M       0.0273
     20 H8          5.3678   27.9717   23.9743 H           1 G8M       0.0273
     21 H9          7.4972   28.9936   24.2368 H           1 G8M       0.0286
     22 H10         8.1397   27.5084   25.0459 H           1 G8M       0.0286
@<TRIPOS>BOND
     1     1     2  ar
     2     1     3  ar
     3     4     1   1
     4    10     4   1
     5     4    12   1
     6     5     6  ar
     7     5     7  ar
     8     8     5   1
     9     8     9   1
    10     8    10   1
    11    10    11   1
    12    11    12   1
    13     4    13   1
    14     8    14   1
    15     9    15   1
    16     9    16   1
    17     9    17   1
    18    10    18   1
    19    11    19   1
    20    11    20   1
    21    12    21   1
    22    12    22   1
@<TRIPOS>SUBSTRUCTURE
     1  G8M      1

