@<TRIPOS>MOLECULE
4gid_ligand_024
    95    97
SMALL
GAST_HUCK
****
This file was generated by PARSER (from files_GN.cpp)

@<TRIPOS>ATOM
      1 CBK        41.4521   -0.5562   13.4542 C.3         1 MOL      -0.0608
      2 CBL        41.1905   -2.0728   13.2242 C.3         1 MOL      -0.0265
      3 CBM        39.7018   -2.4126   13.5094 C.3         1 MOL      -0.0608
      4 CBN        41.5891   -2.5825   11.8027 C.3         1 MOL       0.0334
      5 NBO        42.6575   -1.8637   11.1793 N.am        1 MOL      -0.2820
      6 CBP        43.9569   -2.1238   11.2527 C.2         1 MOL       0.2271
      7 OBV        44.3496   -3.0696   11.9274 O.2         1 MOL      -0.3908
      8 CBG        44.9337   -1.1713   10.7193 C.3         1 MOL       0.0928
      9 CBH        46.3091   -1.8385   10.3814 C.3         1 MOL       0.1121
     10 CBJ        46.2170   -3.1180    9.4968 C.3         1 MOL      -0.0314
     11 OBI        47.1533   -0.9178    9.6976 O.3         1 MOL      -0.3840
     12 NBF        44.9453   -0.0860   11.7409 N.4         1 MOL       0.2497
     13 CAX        45.9509    1.0000   11.7932 C.3         1 MOL      -0.0062
     14 CAW        47.0862    0.6963   12.8330 C.3         1 MOL       0.0906
     15 CAY        47.6110    1.9865   13.5367 C.3         1 MOL       0.0089
     16 CAZ        48.4382    1.7129   14.7441 C.ar        1 MOL      -0.0406
     17 CBA        47.8970    0.9742   15.8254 C.ar        1 MOL      -0.0603
     18 CBB        48.6704    0.7089   16.9711 C.ar        1 MOL      -0.0686
     19 CBC        49.9931    1.1832   17.0518 C.ar        1 MOL      -0.0687
     20 CBD        50.5417    1.9175   15.9854 C.ar        1 MOL      -0.0686
     21 CBE        49.7678    2.1868   14.8415 C.ar        1 MOL      -0.0603
     22 NAV        48.1957    0.0607   12.1799 N.am        1 MOL      -0.2761
     23 CAT        48.7916   -1.0827   12.4934 C.2         1 MOL       0.2026
     24 OAU        48.4244   -1.8015   13.4141 O.2         1 MOL      -0.3847
     25 CAP        49.8532   -1.4746   11.7076 C.ar        1 MOL       0.0397
     26 CAQ        51.1032   -0.8275   11.8237 C.ar        1 MOL      -0.0393
     27 CAO        49.6453   -2.3935   10.6572 C.ar        1 MOL      -0.0214
     28 CAN        50.6477   -2.6052    9.6872 C.ar        1 MOL       0.0754
     29 NAE        50.3819   -3.3681    8.5913 N.am        1 MOL      -0.1796
     30 CBT        49.8590   -2.7649    7.3993 C.3         1 MOL       0.0445
     31 SAB        50.5071   -5.0535    8.6871 S.o2        1 MOL       0.0593
     32 OAC        51.2498   -5.4825   10.0278 O.2         1 MOL      -0.1500
     33 OAD        49.0544   -5.7016    8.7579 O.2         1 MOL      -0.1500
     34 CAA        51.4543   -5.7817    7.3345 C.3         1 MOL       0.0790
     35 CAS        51.8742   -1.9178    9.7906 C.ar        1 MOL      -0.0214
     36 CAR        52.1407   -1.0506   10.8809 C.ar        1 MOL       0.0398
     37 CAL        53.3922   -0.4449   11.0338 C.2         1 MOL       0.2041
     38 OAM        53.8590   -0.3210   12.1605 O.2         1 MOL      -0.3845
     39 NBQ        54.0902   -0.0400    9.9758 N.am        1 MOL      -0.2723
     40 CBR        55.4196    0.5076    9.9725 C.3         1 MOL       0.0723
     41 CBS        55.6181    1.2461    8.6232 C.3         1 MOL      -0.0320
     42 CAI        56.5058   -0.5028   10.2065 C.ar        1 MOL      -0.0183
     43 CAH        57.8613   -0.0812   10.2618 C.ar        1 MOL      -0.0582
     44 CAG        58.9088   -1.0012   10.4743 C.ar        1 MOL      -0.0685
     45 CAF        58.6212   -2.3678   10.6357 C.ar        1 MOL      -0.0687
     46 CAK        57.2888   -2.8106   10.5946 C.ar        1 MOL      -0.0685
     47 CAJ        56.2465   -1.8895   10.3767 C.ar        1 MOL      -0.0582
     48 H1         41.0647   -0.2361   14.4271 H           1 MOL       0.0233
     49 H2         40.9716    0.0452   12.6813 H           1 MOL       0.0233
     50 H3         42.5192   -0.3490   13.4455 H           1 MOL       0.0233
     51 H4         41.7945   -2.6152   13.9579 H           1 MOL       0.0315
     52 H5         39.5338   -3.4879   13.4085 H           1 MOL       0.0233
     53 H6         39.0484   -1.8902   12.8066 H           1 MOL       0.0233
     54 H7         39.4200   -2.1205   14.5251 H           1 MOL       0.0233
     55 H8         40.7318   -2.5010   11.1388 H           1 MOL       0.0522
     56 H9         41.8470   -3.6420   11.8525 H           1 MOL       0.0522
     57 H10        42.4124   -1.0793   10.6662 H           1 MOL       0.1853
     58 H11        44.5400   -0.7421    9.7834 H           1 MOL       0.1125
     59 H12        46.7958   -2.1031   11.3130 H           1 MOL       0.0674
     60 H13        47.2289   -3.4765    9.2808 H           1 MOL       0.0258
     61 H14        45.7031   -2.8970    8.5548 H           1 MOL       0.0258
     62 H15        45.6692   -3.9155   10.0204 H           1 MOL       0.0258
     63 H16        46.8086   -0.8858    8.7594 H           1 MOL       0.2102
     64 H17        44.9397   -0.5385   12.6599 H           1 MOL       0.2037
     65 H18        44.0334    0.3864   11.6430 H           1 MOL       0.2037
     66 H19        45.3924    1.8796   12.1332 H           1 MOL       0.0839
     67 H20        46.3390    1.2499   10.8150 H           1 MOL       0.0839
     68 H21        46.6862    0.0496   13.6123 H           1 MOL       0.0632
     69 H22        46.7603    2.5904   13.8561 H           1 MOL       0.0450
     70 H23        48.1632    2.5886   12.8088 H           1 MOL       0.0450
     71 H24        46.9342    0.6369   15.7890 H           1 MOL       0.0557
     72 H25        48.2688    0.1772   17.7449 H           1 MOL       0.0599
     73 H26        50.5545    0.9886   17.8824 H           1 MOL       0.0559
     74 H27        51.5037    2.2547   16.0419 H           1 MOL       0.0599
     75 H28        50.1865    2.7166   14.0750 H           1 MOL       0.0557
     76 H29        48.5629    0.5391   11.4150 H           1 MOL       0.1852
     77 H30        51.2452   -0.1558   12.5910 H           1 MOL       0.0576
     78 H31        48.7340   -2.8611   10.5399 H           1 MOL       0.0566
     79 H32        49.7758   -1.6776    7.4847 H           1 MOL       0.0517
     80 H33        48.8619   -3.1579    7.1870 H           1 MOL       0.0517
     81 H34        50.5133   -2.9806    6.5568 H           1 MOL       0.0517
     82 H35        51.5196   -6.8621    7.4720 H           1 MOL       0.0487
     83 H36        52.4599   -5.3594    7.3240 H           1 MOL       0.0487
     84 H37        50.9627   -5.5690    6.3852 H           1 MOL       0.0487
     85 H38        52.5843   -2.0827    9.0685 H           1 MOL       0.0566
     86 H39        53.6497   -0.1091    9.1102 H           1 MOL       0.1875
     87 H40        55.4768    1.2591   10.7660 H           1 MOL       0.0716
     88 H41        56.5722    1.7730    8.6091 H           1 MOL       0.0274
     89 H42        54.8276    1.9834    8.4766 H           1 MOL       0.0274
     90 H43        55.5941    0.5415    7.7901 H           1 MOL       0.0274
     91 H44        58.1002    0.9085   10.1548 H           1 MOL       0.0557
     92 H45        59.8793   -0.6781   10.5207 H           1 MOL       0.0599
     93 H46        59.3775   -3.0370   10.7921 H           1 MOL       0.0559
     94 H47        57.0729   -3.8033   10.7236 H           1 MOL       0.0599
     95 H48        55.2902   -2.2473   10.3468 H           1 MOL       0.0557
@<TRIPOS>BOND
     1     1     2   1
     2     2     3   1
     3     2     4   1
     4     4     5   1
     5     5     6  am
     6     6     7   2
     7     6     8   1
     8     8     9   1
     9     8    12   1
    10     9    10   1
    11     9    11   1
    12    12    13   1
    13    13    14   1
    14    14    15   1
    15    14    22   1
    16    15    16   1
    17    16    17  ar
    18    16    21  ar
    19    17    18  ar
    20    18    19  ar
    21    19    20  ar
    22    20    21  ar
    23    22    23  am
    24    23    24   2
    25    23    25   1
    26    25    26  ar
    27    25    27  ar
    28    26    36  ar
    29    27    28  ar
    30    28    29   1
    31    28    35  ar
    32    29    30   1
    33    29    31  am
    34    31    32   2
    35    31    33   2
    36    31    34   1
    37    35    36  ar
    38    36    37   1
    39    37    38   2
    40    37    39  am
    41    39    40   1
    42    40    41   1
    43    40    42   1
    44    42    43  ar
    45    42    47  ar
    46    43    44  ar
    47    44    45  ar
    48    45    46  ar
    49    46    47  ar
    50     1    48   1
    51     1    49   1
    52     1    50   1
    53     2    51   1
    54     3    52   1
    55     3    53   1
    56     3    54   1
    57     4    55   1
    58     4    56   1
    59     5    57   1
    60     8    58   1
    61     9    59   1
    62    10    60   1
    63    10    61   1
    64    10    62   1
    65    11    63   1
    66    12    64   1
    67    12    65   1
    68    13    66   1
    69    13    67   1
    70    14    68   1
    71    15    69   1
    72    15    70   1
    73    17    71   1
    74    18    72   1
    75    19    73   1
    76    20    74   1
    77    21    75   1
    78    22    76   1
    79    26    77   1
    80    27    78   1
    81    30    79   1
    82    30    80   1
    83    30    81   1
    84    34    82   1
    85    34    83   1
    86    34    84   1
    87    35    85   1
    88    39    86   1
    89    40    87   1
    90    41    88   1
    91    41    89   1
    92    41    90   1
    93    43    91   1
    94    44    92   1
    95    45    93   1
    96    46    94   1
    97    47    95   1
@<TRIPOS>SUBSTRUCTURE
     1  MOL      1

