@<TRIPOS>MOLECULE
4gid_ligand_036
    95    97
SMALL
GAST_HUCK
****
This file was generated by PARSER (from files_GN.cpp)

@<TRIPOS>ATOM
      1 CBK        38.8984   -3.1338   14.5887 C.3         1 MOL      -0.0608
      2 CBL        39.7547   -2.3615   13.5466 C.3         1 MOL      -0.0265
      3 CBM        39.8988   -0.8719   13.9666 C.3         1 MOL      -0.0608
      4 CBN        41.1318   -3.0609   13.3346 C.3         1 MOL       0.0334
      5 NBO        41.7582   -2.6629   12.1113 N.am        1 MOL      -0.2820
      6 CBP        42.8285   -3.2223   11.5744 C.2         1 MOL       0.2271
      7 OBV        43.4195   -4.1242   12.1676 O.2         1 MOL      -0.3908
      8 CBG        43.3207   -2.7385   10.2839 C.3         1 MOL       0.0928
      9 CBH        42.2852   -3.0215    9.1383 C.3         1 MOL       0.1121
     10 CBJ        42.1700   -4.5151    8.7089 C.3         1 MOL      -0.0314
     11 OBI        40.9731   -2.5709    9.5067 O.3         1 MOL      -0.3840
     12 NBF        44.6681   -3.1971    9.8254 N.4         1 MOL       0.2497
     13 CAX        45.8843   -3.0304   10.6686 C.3         1 MOL      -0.0062
     14 CAW        46.0149   -1.7080   11.4878 C.3         1 MOL       0.0906
     15 CAY        46.4882   -0.5107   10.6128 C.3         1 MOL       0.0089
     16 CAZ        46.6974    0.7366   11.4022 C.ar        1 MOL      -0.0406
     17 CBA        45.6900    1.7317   11.4632 C.ar        1 MOL      -0.0603
     18 CBB        45.8712    2.8911   12.2389 C.ar        1 MOL      -0.0686
     19 CBC        47.0636    3.0719   12.9628 C.ar        1 MOL      -0.0687
     20 CBD        48.0722    2.0948   12.9137 C.ar        1 MOL      -0.0686
     21 CBE        47.8892    0.9353   12.1385 C.ar        1 MOL      -0.0603
     22 NAV        46.7905   -1.8970   12.6883 N.am        1 MOL      -0.2761
     23 CAT        48.0022   -2.4278   12.8506 C.2         1 MOL       0.2026
     24 OAU        48.6138   -2.7620   11.8399 O.2         1 MOL      -0.3847
     25 CAP        48.5861   -2.6316   14.1183 C.ar        1 MOL       0.0397
     26 CAQ        49.8838   -3.1972   14.2528 C.ar        1 MOL      -0.0393
     27 CAO        47.9063   -2.3144   15.3222 C.ar        1 MOL      -0.0214
     28 CAN        48.4685   -2.5302   16.5989 C.ar        1 MOL       0.0754
     29 NAE        47.7773   -2.1876   17.7436 N.am        1 MOL      -0.1796
     30 CBT        47.0816   -0.9310   17.8626 C.3         1 MOL       0.0445
     31 SAB        47.6670   -3.2852   19.0314 S.o2        1 MOL       0.0593
     32 OAC        49.0269   -3.3651   19.8544 O.2         1 MOL      -0.1500
     33 OAD        46.5549   -2.8063   20.0678 O.2         1 MOL      -0.1500
     34 CAA        47.1426   -4.9363   18.5356 C.3         1 MOL       0.0790
     35 CAS        49.7513   -3.1104   16.6750 C.ar        1 MOL      -0.0214
     36 CAR        50.4733   -3.4637   15.5149 C.ar        1 MOL       0.0398
     37 CAL        51.7470   -4.0456   15.6061 C.2         1 MOL       0.2041
     38 OAM        52.5688   -3.8630   14.7157 O.2         1 MOL      -0.3845
     39 NBQ        52.0542   -4.8079   16.6549 N.am        1 MOL      -0.2723
     40 CBR        53.3322   -5.3704   16.9883 C.3         1 MOL       0.0723
     41 CBS        53.9900   -6.2117   15.8493 C.3         1 MOL      -0.0320
     42 CAI        53.1863   -6.1966   18.2304 C.ar        1 MOL      -0.0183
     43 CAH        53.9824   -5.9607   19.3762 C.ar        1 MOL      -0.0582
     44 CAG        53.8483   -6.7546   20.5314 C.ar        1 MOL      -0.0685
     45 CAF        52.9085   -7.7987   20.5621 C.ar        1 MOL      -0.0687
     46 CAK        52.0899   -8.0387   19.4437 C.ar        1 MOL      -0.0685
     47 CAJ        52.2208   -7.2377   18.2959 C.ar        1 MOL      -0.0582
     48 H1         37.9160   -2.6650   14.6976 H           1 MOL       0.0233
     49 H2         39.3938   -3.1374   15.5648 H           1 MOL       0.0233
     50 H3         38.7457   -4.1677   14.2702 H           1 MOL       0.0233
     51 H4         39.2112   -2.3869   12.5922 H           1 MOL       0.0315
     52 H5         40.4025   -0.2971   13.1906 H           1 MOL       0.0233
     53 H6         40.4708   -0.7863   14.8940 H           1 MOL       0.0233
     54 H7         38.9127   -0.4293   14.1251 H           1 MOL       0.0233
     55 H8         40.9794   -4.1430   13.3096 H           1 MOL       0.0522
     56 H9         41.7879   -2.8254   14.1764 H           1 MOL       0.0522
     57 H10        41.3323   -1.9403   11.6144 H           1 MOL       0.1853
     58 H11        43.4010   -1.6496   10.3507 H           1 MOL       0.1125
     59 H12        42.5783   -2.4447    8.2501 H           1 MOL       0.0674
     60 H13        41.4347   -4.6150    7.9049 H           1 MOL       0.0258
     61 H14        41.8461   -5.1346    9.5539 H           1 MOL       0.0258
     62 H15        43.1260   -4.8975    8.3442 H           1 MOL       0.0258
     63 H16        40.5952   -3.3001   10.0346 H           1 MOL       0.2102
     64 H17        44.8562   -2.7300    8.9334 H           1 MOL       0.2037
     65 H18        44.6000   -4.1991    9.6313 H           1 MOL       0.2037
     66 H19        46.7402   -3.1204    9.9944 H           1 MOL       0.0839
     67 H20        45.9440   -3.8856   11.3412 H           1 MOL       0.0839
     68 H21        45.0161   -1.4569   11.8508 H           1 MOL       0.0632
     69 H22        45.7456   -0.3233    9.8314 H           1 MOL       0.0450
     70 H23        47.4099   -0.7806   10.0926 H           1 MOL       0.0450
     71 H24        44.8147    1.6138   10.9471 H           1 MOL       0.0557
     72 H25        45.1382    3.6006   12.2809 H           1 MOL       0.0599
     73 H26        47.2016    3.9149   13.5253 H           1 MOL       0.0559
     74 H27        48.9368    2.2213   13.4440 H           1 MOL       0.0599
     75 H28        48.6284    0.2323   12.1263 H           1 MOL       0.0557
     76 H29        46.3385   -1.6178   13.4977 H           1 MOL       0.1852
     77 H30        50.4073   -3.4588   13.4100 H           1 MOL       0.0576
     78 H31        46.9689   -1.9229   15.2920 H           1 MOL       0.0566
     79 H32        47.2786   -0.2567   17.0228 H           1 MOL       0.0517
     80 H33        47.3971   -0.4133   18.7754 H           1 MOL       0.0517
     81 H34        46.0018   -1.1044   17.9119 H           1 MOL       0.0517
     82 H35        47.0805   -5.5775   19.4128 H           1 MOL       0.0487
     83 H36        47.8620   -5.3543   17.8329 H           1 MOL       0.0487
     84 H37        46.1644   -4.8758   18.0619 H           1 MOL       0.0487
     85 H38        50.1777   -3.2574   17.5960 H           1 MOL       0.0566
     86 H39        51.3471   -4.9594   17.2993 H           1 MOL       0.1875
     87 H40        54.0085   -4.5339   17.1866 H           1 MOL       0.0716
     88 H41        53.5047   -7.1909   15.7276 H           1 MOL       0.0274
     89 H42        55.0567   -6.3692   16.0739 H           1 MOL       0.0274
     90 H43        53.9280   -5.6860   14.8889 H           1 MOL       0.0274
     91 H44        54.6804   -5.2080   19.3745 H           1 MOL       0.0557
     92 H45        54.4348   -6.5695   21.3495 H           1 MOL       0.0599
     93 H46        52.8231   -8.3838   21.3946 H           1 MOL       0.0559
     94 H47        51.3976   -8.7932   19.4693 H           1 MOL       0.0599
     95 H48        51.6114   -7.4247   17.4970 H           1 MOL       0.0557
@<TRIPOS>BOND
     1     1     2   1
     2     2     3   1
     3     2     4   1
     4     4     5   1
     5     5     6  am
     6     6     7   2
     7     6     8   1
     8     8     9   1
     9     8    12   1
    10     9    10   1
    11     9    11   1
    12    12    13   1
    13    13    14   1
    14    14    15   1
    15    14    22   1
    16    15    16   1
    17    16    17  ar
    18    16    21  ar
    19    17    18  ar
    20    18    19  ar
    21    19    20  ar
    22    20    21  ar
    23    22    23  am
    24    23    24   2
    25    23    25   1
    26    25    26  ar
    27    25    27  ar
    28    26    36  ar
    29    27    28  ar
    30    28    29   1
    31    28    35  ar
    32    29    30   1
    33    29    31  am
    34    31    32   2
    35    31    33   2
    36    31    34   1
    37    35    36  ar
    38    36    37   1
    39    37    38   2
    40    37    39  am
    41    39    40   1
    42    40    41   1
    43    40    42   1
    44    42    43  ar
    45    42    47  ar
    46    43    44  ar
    47    44    45  ar
    48    45    46  ar
    49    46    47  ar
    50     1    48   1
    51     1    49   1
    52     1    50   1
    53     2    51   1
    54     3    52   1
    55     3    53   1
    56     3    54   1
    57     4    55   1
    58     4    56   1
    59     5    57   1
    60     8    58   1
    61     9    59   1
    62    10    60   1
    63    10    61   1
    64    10    62   1
    65    11    63   1
    66    12    64   1
    67    12    65   1
    68    13    66   1
    69    13    67   1
    70    14    68   1
    71    15    69   1
    72    15    70   1
    73    17    71   1
    74    18    72   1
    75    19    73   1
    76    20    74   1
    77    21    75   1
    78    22    76   1
    79    26    77   1
    80    27    78   1
    81    30    79   1
    82    30    80   1
    83    30    81   1
    84    34    82   1
    85    34    83   1
    86    34    84   1
    87    35    85   1
    88    39    86   1
    89    40    87   1
    90    41    88   1
    91    41    89   1
    92    41    90   1
    93    43    91   1
    94    44    92   1
    95    45    93   1
    96    46    94   1
    97    47    95   1
@<TRIPOS>SUBSTRUCTURE
     1  MOL      1

