@<TRIPOS>MOLECULE
4gid_ligand_044
    95    97
SMALL
GAST_HUCK
****
This file was generated by PARSER (from files_GN.cpp)

@<TRIPOS>ATOM
      1 CBK        42.1076   -5.8188   11.2087 C.3         1 MOL      -0.0608
      2 CBL        42.2981   -4.9144    9.9535 C.3         1 MOL      -0.0265
      3 CBM        41.6515   -5.5789    8.7043 C.3         1 MOL      -0.0608
      4 CBN        41.7631   -3.4501   10.1864 C.3         1 MOL       0.0334
      5 NBO        42.8005   -2.4848   10.3817 N.am        1 MOL      -0.2820
      6 CBP        43.7419   -2.5096   11.3212 C.2         1 MOL       0.2271
      7 OBV        43.7421   -3.3850   12.1831 O.2         1 MOL      -0.3908
      8 CBG        44.8591   -1.5692   11.2656 C.3         1 MOL       0.0928
      9 CBH        44.4707   -0.1130   10.8633 C.3         1 MOL       0.1121
     10 CBJ        43.2797    0.4796   11.6640 C.3         1 MOL      -0.0314
     11 OBI        45.5861    0.7628   11.0678 O.3         1 MOL      -0.3840
     12 NBF        45.8608   -2.1223   10.3073 N.4         1 MOL       0.2497
     13 CAX        46.8010   -3.1583   10.8077 C.3         1 MOL      -0.0062
     14 CAW        48.0986   -2.5330   11.4540 C.3         1 MOL       0.0906
     15 CAY        49.3773   -2.9715   10.6636 C.3         1 MOL       0.0089
     16 CAZ        50.5888   -2.1054   10.5968 C.ar        1 MOL      -0.0406
     17 CBA        51.4016   -2.1914    9.4340 C.ar        1 MOL      -0.0603
     18 CBB        52.5051   -1.3366    9.2558 C.ar        1 MOL      -0.0686
     19 CBC        52.8314   -0.3918   10.2407 C.ar        1 MOL      -0.0687
     20 CBD        52.0596   -0.3181   11.4208 C.ar        1 MOL      -0.0686
     21 CBE        50.9380   -1.1607   11.5920 C.ar        1 MOL      -0.0603
     22 NAV        48.0277   -2.7359   12.8839 N.am        1 MOL      -0.2761
     23 CAT        48.9280   -3.1219   13.7833 C.2         1 MOL       0.2026
     24 OAU        50.1089   -3.2232   13.4474 O.2         1 MOL      -0.3847
     25 CAP        48.5820   -3.3909   15.1172 C.ar        1 MOL       0.0397
     26 CAQ        47.6195   -2.6202   15.8164 C.ar        1 MOL      -0.0393
     27 CAO        49.1847   -4.4706   15.8165 C.ar        1 MOL      -0.0214
     28 CAN        48.8295   -4.7985   17.1419 C.ar        1 MOL       0.0754
     29 NAE        49.4147   -5.8536   17.7881 N.am        1 MOL      -0.1796
     30 CBT        50.8366   -5.9285   17.9769 C.3         1 MOL       0.0445
     31 SAB        48.4352   -7.1479   18.2929 S.o2        1 MOL       0.0593
     32 OAC        49.2285   -8.0698   19.3226 O.2         1 MOL      -0.1500
     33 OAD        47.1727   -6.6554   19.1309 O.2         1 MOL      -0.1500
     34 CAA        47.9085   -8.2283   16.9518 C.3         1 MOL       0.0790
     35 CAS        47.8614   -4.0085   17.7905 C.ar        1 MOL      -0.0214
     36 CAR        47.2437   -2.9045   17.1526 C.ar        1 MOL       0.0398
     37 CAL        46.2965   -2.1329   17.8395 C.2         1 MOL       0.2041
     38 OAM        45.6183   -2.6472   18.7233 O.2         1 MOL      -0.3845
     39 NBQ        46.1695   -0.8316   17.6003 N.am        1 MOL      -0.2723
     40 CBR        45.2949    0.0874   18.2709 C.3         1 MOL       0.0723
     41 CBS        45.2245    1.3905   17.4435 C.3         1 MOL      -0.0320
     42 CAI        45.6906    0.3919   19.6830 C.ar        1 MOL      -0.0183
     43 CAH        44.8168    1.1345   20.5178 C.ar        1 MOL      -0.0582
     44 CAG        45.1598    1.4249   21.8463 C.ar        1 MOL      -0.0685
     45 CAF        46.3852    0.9753   22.3716 C.ar        1 MOL      -0.0687
     46 CAK        47.2748    0.2525   21.5580 C.ar        1 MOL      -0.0685
     47 CAJ        46.9388   -0.0270   20.2246 C.ar        1 MOL      -0.0582
     48 H1         42.5298   -6.8112   11.0266 H           1 MOL       0.0233
     49 H2         41.0457   -5.9260   11.4391 H           1 MOL       0.0233
     50 H3         42.6163   -5.3874   12.0747 H           1 MOL       0.0233
     51 H4         43.3736   -4.8738    9.7562 H           1 MOL       0.0315
     52 H5         41.8648   -4.9844    7.8085 H           1 MOL       0.0233
     53 H6         40.5681   -5.6558    8.8231 H           1 MOL       0.0233
     54 H7         42.0627   -6.5816    8.5511 H           1 MOL       0.0233
     55 H8         41.0658   -3.4033   11.0283 H           1 MOL       0.0522
     56 H9         41.2083   -3.1070    9.3102 H           1 MOL       0.0522
     57 H10        42.8170   -1.7395    9.7567 H           1 MOL       0.1853
     58 H11        45.3268   -1.4865   12.2568 H           1 MOL       0.1125
     59 H12        44.2198   -0.0775    9.7993 H           1 MOL       0.0674
     60 H13        43.0947    1.5092   11.3543 H           1 MOL       0.0258
     61 H14        43.4972    0.4757   12.7359 H           1 MOL       0.0258
     62 H15        42.3715   -0.1019   11.4869 H           1 MOL       0.0258
     63 H16        45.9095    1.0054   10.1750 H           1 MOL       0.2102
     64 H17        46.4258   -1.3600    9.9328 H           1 MOL       0.2037
     65 H18        45.3488   -2.5188    9.5104 H           1 MOL       0.2037
     66 H19        47.0528   -3.7707    9.9392 H           1 MOL       0.0839
     67 H20        46.2877   -3.8353   11.4985 H           1 MOL       0.0839
     68 H21        48.0345   -1.4514   11.3270 H           1 MOL       0.0632
     69 H22        49.0722   -3.1141    9.6183 H           1 MOL       0.0450
     70 H23        49.6827   -3.9609   11.0371 H           1 MOL       0.0450
     71 H24        51.1826   -2.8681    8.6984 H           1 MOL       0.0557
     72 H25        53.0623   -1.3991    8.4008 H           1 MOL       0.0599
     73 H26        53.6292    0.2281   10.1142 H           1 MOL       0.0559
     74 H27        52.2984    0.3658   12.1407 H           1 MOL       0.0599
     75 H28        50.3761   -1.0516   12.4376 H           1 MOL       0.0557
     76 H29        47.1270   -2.6354   13.2328 H           1 MOL       0.1852
     77 H30        47.1783   -1.8346   15.3386 H           1 MOL       0.0576
     78 H31        49.8888   -5.0499   15.3501 H           1 MOL       0.0566
     79 H32        51.3560   -5.0438   17.6017 H           1 MOL       0.0517
     80 H33        51.2343   -6.8005   17.4583 H           1 MOL       0.0517
     81 H34        51.0621   -6.0179   19.0408 H           1 MOL       0.0517
     82 H35        47.2541   -9.0080   17.3385 H           1 MOL       0.0487
     83 H36        48.7818   -8.6851   16.4940 H           1 MOL       0.0487
     84 H37        47.3725   -7.6441   16.2069 H           1 MOL       0.0487
     85 H38        47.6419   -4.2224   18.7636 H           1 MOL       0.0566
     86 H39        46.7587   -0.4507   16.9346 H           1 MOL       0.1875
     87 H40        44.2929   -0.3510   18.2626 H           1 MOL       0.0716
     88 H41        44.5479    2.1136   17.9058 H           1 MOL       0.0274
     89 H42        44.8598    1.1816   16.4362 H           1 MOL       0.0274
     90 H43        46.2147    1.8431   17.3605 H           1 MOL       0.0274
     91 H44        43.9203    1.4645   20.1523 H           1 MOL       0.0557
     92 H45        44.5208    1.9626   22.4328 H           1 MOL       0.0599
     93 H46        46.6346    1.1856   23.3413 H           1 MOL       0.0559
     94 H47        48.1684   -0.0688   21.9364 H           1 MOL       0.0599
     95 H48        47.6072   -0.5417   19.6462 H           1 MOL       0.0557
@<TRIPOS>BOND
     1     1     2   1
     2     2     3   1
     3     2     4   1
     4     4     5   1
     5     5     6  am
     6     6     7   2
     7     6     8   1
     8     8     9   1
     9     8    12   1
    10     9    10   1
    11     9    11   1
    12    12    13   1
    13    13    14   1
    14    14    15   1
    15    14    22   1
    16    15    16   1
    17    16    17  ar
    18    16    21  ar
    19    17    18  ar
    20    18    19  ar
    21    19    20  ar
    22    20    21  ar
    23    22    23  am
    24    23    24   2
    25    23    25   1
    26    25    26  ar
    27    25    27  ar
    28    26    36  ar
    29    27    28  ar
    30    28    29   1
    31    28    35  ar
    32    29    30   1
    33    29    31  am
    34    31    32   2
    35    31    33   2
    36    31    34   1
    37    35    36  ar
    38    36    37   1
    39    37    38   2
    40    37    39  am
    41    39    40   1
    42    40    41   1
    43    40    42   1
    44    42    43  ar
    45    42    47  ar
    46    43    44  ar
    47    44    45  ar
    48    45    46  ar
    49    46    47  ar
    50     1    48   1
    51     1    49   1
    52     1    50   1
    53     2    51   1
    54     3    52   1
    55     3    53   1
    56     3    54   1
    57     4    55   1
    58     4    56   1
    59     5    57   1
    60     8    58   1
    61     9    59   1
    62    10    60   1
    63    10    61   1
    64    10    62   1
    65    11    63   1
    66    12    64   1
    67    12    65   1
    68    13    66   1
    69    13    67   1
    70    14    68   1
    71    15    69   1
    72    15    70   1
    73    17    71   1
    74    18    72   1
    75    19    73   1
    76    20    74   1
    77    21    75   1
    78    22    76   1
    79    26    77   1
    80    27    78   1
    81    30    79   1
    82    30    80   1
    83    30    81   1
    84    34    82   1
    85    34    83   1
    86    34    84   1
    87    35    85   1
    88    39    86   1
    89    40    87   1
    90    41    88   1
    91    41    89   1
    92    41    90   1
    93    43    91   1
    94    44    92   1
    95    45    93   1
    96    46    94   1
    97    47    95   1
@<TRIPOS>SUBSTRUCTURE
     1  MOL      1

