@<TRIPOS>MOLECULE
4gid_ligand_028
    95    97
SMALL
GAST_HUCK
****
This file was generated by PARSER (from files_GN.cpp)

@<TRIPOS>ATOM
      1 CBK        46.3133    0.3678   12.4949 C.3         1 MOL      -0.0608
      2 CBL        45.0458    0.9683   11.8253 C.3         1 MOL      -0.0265
      3 CBM        45.1128    2.5219   11.8412 C.3         1 MOL      -0.0608
      4 CBN        44.8306    0.4378   10.3781 C.3         1 MOL       0.0334
      5 NBO        44.5849   -0.9737   10.3243 N.am        1 MOL      -0.2820
      6 CBP        44.2330   -1.6535    9.2416 C.2         1 MOL       0.2271
      7 OBV        44.0358   -1.0627    8.1831 O.2         1 MOL      -0.3908
      8 CBG        44.2212   -3.1170    9.2305 C.3         1 MOL       0.0928
      9 CBH        45.4140   -3.6398    8.3587 C.3         1 MOL       0.1121
     10 CBJ        46.8048   -3.3554    8.9844 C.3         1 MOL      -0.0314
     11 OBI        45.3549   -5.0388    8.1396 O.3         1 MOL      -0.3840
     12 NBF        42.8587   -3.5611    8.7899 N.4         1 MOL       0.2497
     13 CAX        42.4151   -4.9840    8.8808 C.3         1 MOL      -0.0062
     14 CAW        42.2418   -5.5149   10.3376 C.3         1 MOL       0.0906
     15 CAY        42.2946   -7.0769   10.4888 C.3         1 MOL       0.0089
     16 CAZ        40.9803   -7.7880   10.4385 C.ar        1 MOL      -0.0406
     17 CBA        40.4239   -8.3753   11.6035 C.ar        1 MOL      -0.0603
     18 CBB        39.1632   -8.9993   11.5675 C.ar        1 MOL      -0.0686
     19 CBC        38.4369   -9.0438   10.3654 C.ar        1 MOL      -0.0687
     20 CBD        38.9757   -8.4717    9.1993 C.ar        1 MOL      -0.0686
     21 CBE        40.2372   -7.8484    9.2358 C.ar        1 MOL      -0.0603
     22 NAV        41.0192   -4.9885   10.8776 N.am        1 MOL      -0.2761
     23 CAT        40.7396   -4.7454   12.1508 C.2         1 MOL       0.2026
     24 OAU        41.6650   -4.7126   12.9552 O.2         1 MOL      -0.3847
     25 CAP        39.4127   -4.5610   12.5767 C.ar        1 MOL       0.0397
     26 CAQ        39.1282   -3.9786   13.8357 C.ar        1 MOL      -0.0393
     27 CAO        38.3111   -5.0014   11.8023 C.ar        1 MOL      -0.0214
     28 CAN        36.9793   -4.8460   12.2389 C.ar        1 MOL       0.0754
     29 NAE        35.9438   -5.2824   11.4461 N.am        1 MOL      -0.1796
     30 CBT        35.7395   -4.7708   10.1159 C.3         1 MOL       0.0445
     31 SAB        34.9007   -6.4928   12.0138 S.o2        1 MOL       0.0593
     32 OAC        35.6858   -7.3728   13.0811 O.2         1 MOL      -0.1500
     33 OAD        33.6502   -5.8656   12.7682 O.2         1 MOL      -0.1500
     34 CAA        34.3162   -7.6502   10.7599 C.3         1 MOL       0.0790
     35 CAS        36.7476   -4.2735   13.5048 C.ar        1 MOL      -0.0214
     36 CAR        37.8103   -3.8429   14.3474 C.ar        1 MOL       0.0398
     37 CAL        37.5853   -3.3378   15.6400 C.2         1 MOL       0.2041
     38 OAM        38.4496   -2.6404   16.1786 O.2         1 MOL      -0.3845
     39 NBQ        36.4627   -3.5603   16.3132 N.am        1 MOL      -0.2723
     40 CBR        36.1805   -3.1601   17.6655 C.3         1 MOL       0.0723
     41 CBS        34.6896   -3.4238   17.9744 C.3         1 MOL      -0.0320
     42 CAI        36.5565   -1.7417   17.9579 C.ar        1 MOL      -0.0183
     43 CAH        37.0091   -1.3852   19.2530 C.ar        1 MOL      -0.0582
     44 CAG        37.4977   -0.0907   19.5166 C.ar        1 MOL      -0.0685
     45 CAF        37.5565    0.8585   18.4844 C.ar        1 MOL      -0.0687
     46 CAK        37.0903    0.5260   17.1971 C.ar        1 MOL      -0.0685
     47 CAJ        36.5735   -0.7582   16.9422 C.ar        1 MOL      -0.0582
     48 H1         46.4289    0.7564   13.5091 H           1 MOL       0.0233
     49 H2         47.2065    0.6186   11.9194 H           1 MOL       0.0233
     50 H3         46.2358   -0.7188   12.5633 H           1 MOL       0.0233
     51 H4         44.1781    0.6733   12.4236 H           1 MOL       0.0315
     52 H5         44.1964    2.9486   11.4259 H           1 MOL       0.0233
     53 H6         45.9607    2.8782   11.2513 H           1 MOL       0.0233
     54 H7         45.2227    2.8900   12.8640 H           1 MOL       0.0233
     55 H8         45.7201    0.6658    9.7789 H           1 MOL       0.0522
     56 H9         43.9733    0.9476    9.9297 H           1 MOL       0.0522
     57 H10        44.7434   -1.4810   11.1364 H           1 MOL       0.1853
     58 H11        44.3885   -3.4662   10.2516 H           1 MOL       0.1125
     59 H12        45.3711   -3.1747    7.3728 H           1 MOL       0.0674
     60 H13        47.5918   -3.7694    8.3480 H           1 MOL       0.0258
     61 H14        46.8805   -3.8171    9.9738 H           1 MOL       0.0258
     62 H15        46.9820   -2.2843    9.0860 H           1 MOL       0.0258
     63 H16        44.8406   -5.1371    7.3034 H           1 MOL       0.2102
     64 H17        42.7390   -3.2648    7.8122 H           1 MOL       0.2037
     65 H18        42.1905   -3.0297    9.3540 H           1 MOL       0.2037
     66 H19        43.0769   -5.6294    8.3173 H           1 MOL       0.0839
     67 H20        41.4532   -5.0382    8.3684 H           1 MOL       0.0839
     68 H21        43.0882   -5.1356   10.9110 H           1 MOL       0.0632
     69 H22        42.7725   -7.2945   11.4507 H           1 MOL       0.0450
     70 H23        42.9554   -7.5122    9.7335 H           1 MOL       0.0450
     71 H24        40.9271   -8.3383   12.4942 H           1 MOL       0.0557
     72 H25        38.7713   -9.4171   12.4144 H           1 MOL       0.0599
     73 H26        37.5210   -9.4929   10.3394 H           1 MOL       0.0559
     74 H27        38.4461   -8.5053    8.3248 H           1 MOL       0.0599
     75 H28        40.6118   -7.4360    8.3773 H           1 MOL       0.0557
     76 H29        40.2764   -4.9526   10.2579 H           1 MOL       0.1852
     77 H30        39.9162   -3.6501   14.4024 H           1 MOL       0.0576
     78 H31        38.4644   -5.4812   10.9129 H           1 MOL       0.0566
     79 H32        36.4142   -3.9453    9.8786 H           1 MOL       0.0517
     80 H33        34.7189   -4.4002   10.0065 H           1 MOL       0.0517
     81 H34        35.9062   -5.5610    9.3815 H           1 MOL       0.0517
     82 H35        33.7247   -8.4371   11.2289 H           1 MOL       0.0487
     83 H36        35.1664   -8.0954   10.2439 H           1 MOL       0.0487
     84 H37        33.6939   -7.1193   10.0404 H           1 MOL       0.0487
     85 H38        35.7790   -4.1631   13.8050 H           1 MOL       0.0566
     86 H39        35.7714   -4.0835   15.8748 H           1 MOL       0.1875
     87 H40        36.7606   -3.8298   18.3072 H           1 MOL       0.0716
     88 H41        34.4703   -3.1894   19.0191 H           1 MOL       0.0274
     89 H42        34.4587   -4.4803   17.8083 H           1 MOL       0.0274
     90 H43        34.0451   -2.8202   17.3287 H           1 MOL       0.0274
     91 H44        36.9838   -2.0631   20.0155 H           1 MOL       0.0557
     92 H45        37.8280    0.1499   20.4536 H           1 MOL       0.0599
     93 H46        37.9388    1.7907   18.6669 H           1 MOL       0.0559
     94 H47        37.1217    1.2204   16.4443 H           1 MOL       0.0599
     95 H48        36.2357   -0.9736   16.0009 H           1 MOL       0.0557
@<TRIPOS>BOND
     1     1     2   1
     2     2     3   1
     3     2     4   1
     4     4     5   1
     5     5     6  am
     6     6     7   2
     7     6     8   1
     8     8     9   1
     9     8    12   1
    10     9    10   1
    11     9    11   1
    12    12    13   1
    13    13    14   1
    14    14    15   1
    15    14    22   1
    16    15    16   1
    17    16    17  ar
    18    16    21  ar
    19    17    18  ar
    20    18    19  ar
    21    19    20  ar
    22    20    21  ar
    23    22    23  am
    24    23    24   2
    25    23    25   1
    26    25    26  ar
    27    25    27  ar
    28    26    36  ar
    29    27    28  ar
    30    28    29   1
    31    28    35  ar
    32    29    30   1
    33    29    31  am
    34    31    32   2
    35    31    33   2
    36    31    34   1
    37    35    36  ar
    38    36    37   1
    39    37    38   2
    40    37    39  am
    41    39    40   1
    42    40    41   1
    43    40    42   1
    44    42    43  ar
    45    42    47  ar
    46    43    44  ar
    47    44    45  ar
    48    45    46  ar
    49    46    47  ar
    50     1    48   1
    51     1    49   1
    52     1    50   1
    53     2    51   1
    54     3    52   1
    55     3    53   1
    56     3    54   1
    57     4    55   1
    58     4    56   1
    59     5    57   1
    60     8    58   1
    61     9    59   1
    62    10    60   1
    63    10    61   1
    64    10    62   1
    65    11    63   1
    66    12    64   1
    67    12    65   1
    68    13    66   1
    69    13    67   1
    70    14    68   1
    71    15    69   1
    72    15    70   1
    73    17    71   1
    74    18    72   1
    75    19    73   1
    76    20    74   1
    77    21    75   1
    78    22    76   1
    79    26    77   1
    80    27    78   1
    81    30    79   1
    82    30    80   1
    83    30    81   1
    84    34    82   1
    85    34    83   1
    86    34    84   1
    87    35    85   1
    88    39    86   1
    89    40    87   1
    90    41    88   1
    91    41    89   1
    92    41    90   1
    93    43    91   1
    94    44    92   1
    95    45    93   1
    96    46    94   1
    97    47    95   1
@<TRIPOS>SUBSTRUCTURE
     1  MOL      1

