@<TRIPOS>MOLECULE
4gid_ligand_021
    95    97
SMALL
GAST_HUCK
****
This file was generated by PARSER (from files_GN.cpp)

@<TRIPOS>ATOM
      1 CBK        47.8021    1.6123   14.4119 C.3         1 MOL      -0.0608
      2 CBL        47.0391    2.3255   13.2602 C.3         1 MOL      -0.0265
      3 CBM        47.8020    2.2054   11.9132 C.3         1 MOL      -0.0608
      4 CBN        45.5253    1.9222   13.1631 C.3         1 MOL       0.0334
      5 NBO        45.1385    0.9538   12.1800 N.am        1 MOL      -0.2820
      6 CBP        45.5201   -0.3139   12.0889 C.2         1 MOL       0.2271
      7 OBV        46.2947   -0.7908   12.9081 O.2         1 MOL      -0.3908
      8 CBG        44.9697   -1.1929   11.0620 C.3         1 MOL       0.0928
      9 CBH        45.4920   -0.8826    9.6187 C.3         1 MOL       0.1121
     10 CBJ        45.2078    0.5383    9.0652 C.3         1 MOL      -0.0314
     11 OBI        46.8961   -1.1505    9.5580 O.3         1 MOL      -0.3840
     12 NBF        43.4815   -1.1833   11.1616 N.4         1 MOL       0.2497
     13 CAX        42.7462   -2.3518   10.6184 C.3         1 MOL      -0.0062
     14 CAW        42.5824   -3.5397   11.6203 C.3         1 MOL       0.0906
     15 CAY        43.3838   -4.8283   11.2388 C.3         1 MOL       0.0089
     16 CAZ        42.7187   -5.7917   10.3019 C.ar        1 MOL      -0.0406
     17 CBA        42.3542   -7.0891   10.7434 C.ar        1 MOL      -0.0603
     18 CBB        41.6751   -7.9824    9.8919 C.ar        1 MOL      -0.0686
     19 CBC        41.3571   -7.5973    8.5798 C.ar        1 MOL      -0.0687
     20 CBD        41.7227   -6.3211    8.1177 C.ar        1 MOL      -0.0686
     21 CBE        42.4050   -5.4318    8.9692 C.ar        1 MOL      -0.0603
     22 NAV        41.1902   -3.8764   11.7195 N.am        1 MOL      -0.2761
     23 CAT        40.4672   -4.1053   12.8057 C.2         1 MOL       0.2026
     24 OAU        40.9757   -3.9504   13.9108 O.2         1 MOL      -0.3847
     25 CAP        39.1261   -4.4820   12.6933 C.ar        1 MOL       0.0397
     26 CAQ        38.2063   -4.1810   13.7243 C.ar        1 MOL      -0.0393
     27 CAO        38.6276   -5.1397   11.5425 C.ar        1 MOL      -0.0214
     28 CAN        37.2590   -5.4502   11.4094 C.ar        1 MOL       0.0754
     29 NAE        36.7937   -6.0126   10.2592 N.am        1 MOL      -0.1796
     30 CBT        36.2430   -5.2044    9.2092 C.3         1 MOL       0.0445
     31 SAB        36.9368   -7.6844   10.0435 S.o2        1 MOL       0.0593
     32 OAC        35.4843   -8.3326   10.0843 O.2         1 MOL      -0.1500
     33 OAD        37.6129   -7.9952    8.6375 O.2         1 MOL      -0.1500
     34 CAA        37.9193   -8.5121   11.3128 C.3         1 MOL       0.0790
     35 CAS        36.3698   -5.1376   12.4546 C.ar        1 MOL      -0.0214
     36 CAR        36.8241   -4.4833   13.6222 C.ar        1 MOL       0.0398
     37 CAL        35.9469   -4.0781   14.6244 C.2         1 MOL       0.2041
     38 OAM        36.2012   -3.0366   15.2134 O.2         1 MOL      -0.3845
     39 NBQ        34.8579   -4.7836   14.9202 N.am        1 MOL      -0.2723
     40 CBR        33.8388   -4.5667   15.9152 C.3         1 MOL       0.0723
     41 CBS        32.5260   -4.1470   15.2059 C.3         1 MOL      -0.0320
     42 CAI        34.2170   -3.7161   17.0964 C.ar        1 MOL      -0.0183
     43 CAH        34.6085   -4.3300   18.3105 C.ar        1 MOL      -0.0582
     44 CAG        35.1259   -3.5698   19.3767 C.ar        1 MOL      -0.0685
     45 CAF        35.2677   -2.1785   19.2431 C.ar        1 MOL      -0.0687
     46 CAK        34.8636   -1.5479   18.0557 C.ar        1 MOL      -0.0685
     47 CAJ        34.3081   -2.3020   17.0083 C.ar        1 MOL      -0.0582
     48 H1         48.7885    2.0598   14.5452 H           1 MOL       0.0233
     49 H2         47.9328    0.5506   14.2101 H           1 MOL       0.0233
     50 H3         47.2623    1.7206   15.3536 H           1 MOL       0.0233
     51 H4         47.0618    3.3888   13.5212 H           1 MOL       0.0315
     52 H5         47.2839    2.7683   11.1351 H           1 MOL       0.0233
     53 H6         47.8780    1.1633   11.6008 H           1 MOL       0.0233
     54 H7         48.8115    2.6085   12.0090 H           1 MOL       0.0233
     55 H8         44.9628    2.8265   12.9090 H           1 MOL       0.0522
     56 H9         45.1519    1.5999   14.1402 H           1 MOL       0.0522
     57 H10        44.4861    1.2528   11.5265 H           1 MOL       0.1853
     58 H11        45.2965   -2.2191   11.2815 H           1 MOL       0.1125
     59 H12        45.0151   -1.5865    8.9324 H           1 MOL       0.0674
     60 H13        45.4242    0.5774    7.9965 H           1 MOL       0.0258
     61 H14        45.8337    1.2805    9.5597 H           1 MOL       0.0258
     62 H15        44.1598    0.8080    9.2063 H           1 MOL       0.0258
     63 H16        47.0680   -1.3463    8.6149 H           1 MOL       0.2102
     64 H17        43.1226   -0.3748   10.6562 H           1 MOL       0.2037
     65 H18        43.2211   -1.0773   12.1458 H           1 MOL       0.2037
     66 H19        43.2106   -2.6786    9.6919 H           1 MOL       0.0839
     67 H20        41.7647   -1.9747   10.3370 H           1 MOL       0.0839
     68 H21        42.9594   -3.2027   12.5938 H           1 MOL       0.0632
     69 H22        43.5943   -5.3427   12.1799 H           1 MOL       0.0450
     70 H23        44.3537   -4.5496   10.8228 H           1 MOL       0.0450
     71 H24        42.5702   -7.3940   11.6934 H           1 MOL       0.0557
     72 H25        41.4085   -8.9090   10.2325 H           1 MOL       0.0599
     73 H26        40.8648   -8.2461    7.9610 H           1 MOL       0.0559
     74 H27        41.4942   -6.0411    7.1602 H           1 MOL       0.0599
     75 H28        42.6617   -4.5167    8.6001 H           1 MOL       0.0557
     76 H29        40.7362   -3.9835   10.8699 H           1 MOL       0.1852
     77 H30        38.5505   -3.7071   14.5644 H           1 MOL       0.0576
     78 H31        39.2648   -5.4144   10.7871 H           1 MOL       0.0566
     79 H32        36.2153   -4.1417    9.4686 H           1 MOL       0.0517
     80 H33        35.2219   -5.5221    8.9899 H           1 MOL       0.0517
     81 H34        36.8466   -5.3089    8.3059 H           1 MOL       0.0517
     82 H35        37.9536   -9.5831   11.1118 H           1 MOL       0.0487
     83 H36        37.4654   -8.3436   12.2898 H           1 MOL       0.0487
     84 H37        38.9340   -8.1147   11.3175 H           1 MOL       0.0487
     85 H38        35.3796   -5.3560   12.3323 H           1 MOL       0.0566
     86 H39        34.7308   -5.5838   14.3842 H           1 MOL       0.1875
     87 H40        33.6404   -5.5738   16.2935 H           1 MOL       0.0716
     88 H41        31.7230   -4.0319   15.9342 H           1 MOL       0.0274
     89 H42        32.2249   -4.9097   14.4824 H           1 MOL       0.0274
     90 H43        32.6551   -3.2054   14.6677 H           1 MOL       0.0274
     91 H44        34.5647   -5.3487   18.4128 H           1 MOL       0.0557
     92 H45        35.4333   -4.0330   20.2322 H           1 MOL       0.0599
     93 H46        35.6900   -1.6338   19.9955 H           1 MOL       0.0559
     94 H47        34.9935   -0.5382   17.9467 H           1 MOL       0.0599
     95 H48        34.0474   -1.8157   16.1485 H           1 MOL       0.0557
@<TRIPOS>BOND
     1     1     2   1
     2     2     3   1
     3     2     4   1
     4     4     5   1
     5     5     6  am
     6     6     7   2
     7     6     8   1
     8     8     9   1
     9     8    12   1
    10     9    10   1
    11     9    11   1
    12    12    13   1
    13    13    14   1
    14    14    15   1
    15    14    22   1
    16    15    16   1
    17    16    17  ar
    18    16    21  ar
    19    17    18  ar
    20    18    19  ar
    21    19    20  ar
    22    20    21  ar
    23    22    23  am
    24    23    24   2
    25    23    25   1
    26    25    26  ar
    27    25    27  ar
    28    26    36  ar
    29    27    28  ar
    30    28    29   1
    31    28    35  ar
    32    29    30   1
    33    29    31  am
    34    31    32   2
    35    31    33   2
    36    31    34   1
    37    35    36  ar
    38    36    37   1
    39    37    38   2
    40    37    39  am
    41    39    40   1
    42    40    41   1
    43    40    42   1
    44    42    43  ar
    45    42    47  ar
    46    43    44  ar
    47    44    45  ar
    48    45    46  ar
    49    46    47  ar
    50     1    48   1
    51     1    49   1
    52     1    50   1
    53     2    51   1
    54     3    52   1
    55     3    53   1
    56     3    54   1
    57     4    55   1
    58     4    56   1
    59     5    57   1
    60     8    58   1
    61     9    59   1
    62    10    60   1
    63    10    61   1
    64    10    62   1
    65    11    63   1
    66    12    64   1
    67    12    65   1
    68    13    66   1
    69    13    67   1
    70    14    68   1
    71    15    69   1
    72    15    70   1
    73    17    71   1
    74    18    72   1
    75    19    73   1
    76    20    74   1
    77    21    75   1
    78    22    76   1
    79    26    77   1
    80    27    78   1
    81    30    79   1
    82    30    80   1
    83    30    81   1
    84    34    82   1
    85    34    83   1
    86    34    84   1
    87    35    85   1
    88    39    86   1
    89    40    87   1
    90    41    88   1
    91    41    89   1
    92    41    90   1
    93    43    91   1
    94    44    92   1
    95    45    93   1
    96    46    94   1
    97    47    95   1
@<TRIPOS>SUBSTRUCTURE
     1  MOL      1

