@<TRIPOS>MOLECULE
4gid_ligand_049
    95    97
SMALL
GAST_HUCK
****
This file was generated by PARSER (from files_GN.cpp)

@<TRIPOS>ATOM
      1 CBK        40.1331   -0.8435   14.1360 C.3         1 MOL      -0.0608
      2 CBL        39.8207   -2.3629   14.0500 C.3         1 MOL      -0.0265
      3 CBM        38.5613   -2.6256   13.1825 C.3         1 MOL      -0.0608
      4 CBN        41.0454   -3.2022   13.5725 C.3         1 MOL       0.0334
      5 NBO        41.6210   -2.7199   12.3566 N.am        1 MOL      -0.2820
      6 CBP        42.7299   -3.1697   11.7712 C.2         1 MOL       0.2271
      7 OBV        43.3564   -4.1108   12.2510 O.2         1 MOL      -0.3908
      8 CBG        43.1969   -2.5442   10.5399 C.3         1 MOL       0.0928
      9 CBH        43.0180   -3.4311    9.2649 C.3         1 MOL       0.1121
     10 CBJ        41.5408   -3.6762    8.8793 C.3         1 MOL      -0.0314
     11 OBI        43.6760   -2.7752    8.1734 O.3         1 MOL      -0.3840
     12 NBF        44.5510   -1.9376   10.6845 N.4         1 MOL       0.2497
     13 CAX        45.7872   -2.6804   10.3081 C.3         1 MOL      -0.0062
     14 CAW        46.9387   -1.6644   10.0150 C.3         1 MOL       0.0906
     15 CAY        47.9839   -2.1381    8.9476 C.3         1 MOL       0.0089
     16 CAZ        49.0924   -2.9818    9.4650 C.ar        1 MOL      -0.0406
     17 CBA        48.8594   -4.3197    9.8601 C.ar        1 MOL      -0.0603
     18 CBB        49.9055   -5.1035   10.3837 C.ar        1 MOL      -0.0686
     19 CBC        51.1921   -4.5591   10.5226 C.ar        1 MOL      -0.0687
     20 CBD        51.4368   -3.2296   10.1304 C.ar        1 MOL      -0.0686
     21 CBE        50.3962   -2.4491    9.6027 C.ar        1 MOL      -0.0603
     22 NAV        47.6027   -1.3233   11.2396 N.am        1 MOL      -0.2761
     23 CAT        47.7729   -0.1245   11.7795 C.2         1 MOL       0.2026
     24 OAU        47.2516    0.8802   11.2976 O.2         1 MOL      -0.3847
     25 CAP        48.4880   -0.0191   12.9543 C.ar        1 MOL       0.0397
     26 CAQ        47.8233    0.1989   14.1817 C.ar        1 MOL      -0.0393
     27 CAO        49.8931   -0.1717   12.9630 C.ar        1 MOL      -0.0214
     28 CAN        50.6238   -0.0925   14.1673 C.ar        1 MOL       0.0754
     29 NAE        51.9927   -0.1523   14.1402 N.am        1 MOL      -0.1796
     30 CBT        52.7690    0.9235   13.5882 C.3         1 MOL       0.0445
     31 SAB        52.7715   -1.5655   14.6588 S.o2        1 MOL       0.0593
     32 OAC        52.7316   -1.6757   16.2465 O.2         1 MOL      -0.1500
     33 OAD        52.0421   -2.8354   14.0363 O.2         1 MOL      -0.1500
     34 CAA        54.5086   -1.7022   14.1894 C.3         1 MOL       0.0790
     35 CAS        49.9266    0.0958   15.3794 C.ar        1 MOL      -0.0214
     36 CAR        48.5089    0.2241   15.4245 C.ar        1 MOL       0.0398
     37 CAL        47.8017    0.3682   16.6287 C.2         1 MOL       0.2041
     38 OAM        46.6190    0.0229   16.6744 O.2         1 MOL      -0.3845
     39 NBQ        48.3723    0.7684   17.7644 N.am        1 MOL      -0.2723
     40 CBR        47.7513    0.9392   19.0514 C.3         1 MOL       0.0723
     41 CBS        48.6783    1.8172   19.9304 C.3         1 MOL      -0.0320
     42 CAI        47.3913   -0.4231   19.5699 C.ar        1 MOL      -0.0183
     43 CAH        46.0719   -0.8969   19.3571 C.ar        1 MOL      -0.0582
     44 CAG        45.6637   -2.1627   19.8220 C.ar        1 MOL      -0.0685
     45 CAF        46.5754   -2.9835   20.5095 C.ar        1 MOL      -0.0687
     46 CAK        47.8902   -2.5353   20.7266 C.ar        1 MOL      -0.0685
     47 CAJ        48.2932   -1.2716   20.2622 C.ar        1 MOL      -0.0582
     48 H1         39.2962   -0.3152   14.5955 H           1 MOL       0.0233
     49 H2         40.3027   -0.4202   13.1435 H           1 MOL       0.0233
     50 H3         41.0210   -0.6671   14.7457 H           1 MOL       0.0233
     51 H4         39.5835   -2.6970   15.0642 H           1 MOL       0.0315
     52 H5         38.2884   -3.6820   13.2188 H           1 MOL       0.0233
     53 H6         38.7438   -2.3482   12.1434 H           1 MOL       0.0233
     54 H7         37.7148   -2.0443   13.5544 H           1 MOL       0.0233
     55 H8         40.7395   -4.2431   13.4354 H           1 MOL       0.0522
     56 H9         41.8068   -3.1812   14.3542 H           1 MOL       0.0522
     57 H10        41.1629   -1.9830   11.9146 H           1 MOL       0.1853
     58 H11        42.5630   -1.6686   10.3620 H           1 MOL       0.1125
     59 H12        43.4931   -4.4060    9.4127 H           1 MOL       0.0674
     60 H13        41.4834   -4.2813    7.9708 H           1 MOL       0.0258
     61 H14        41.0376   -2.7233    8.6979 H           1 MOL       0.0258
     62 H15        41.0222   -4.2077    9.6803 H           1 MOL       0.0258
     63 H16        43.3899   -3.2431    7.3588 H           1 MOL       0.2102
     64 H17        44.6536   -1.6131   11.6500 H           1 MOL       0.2037
     65 H18        44.5300   -1.1063   10.0881 H           1 MOL       0.2037
     66 H19        45.5984   -3.2679    9.4102 H           1 MOL       0.0839
     67 H20        46.0572   -3.3728   11.1118 H           1 MOL       0.0839
     68 H21        46.4795   -0.7695    9.5785 H           1 MOL       0.0632
     69 H22        48.4046   -1.2428    8.4818 H           1 MOL       0.0450
     70 H23        47.4857   -2.6763    8.1391 H           1 MOL       0.0450
     71 H24        47.9302   -4.7309    9.7689 H           1 MOL       0.0557
     72 H25        49.7276   -6.0697   10.6679 H           1 MOL       0.0599
     73 H26        51.9478   -5.1288   10.9084 H           1 MOL       0.0559
     74 H27        52.3686   -2.8250   10.2252 H           1 MOL       0.0599
     75 H28        50.5952   -1.4817    9.3346 H           1 MOL       0.0557
     76 H29        47.9696   -2.0672   11.7463 H           1 MOL       0.1852
     77 H30        46.8049    0.3025   14.1581 H           1 MOL       0.0576
     78 H31        50.3985   -0.3118   12.0831 H           1 MOL       0.0566
     79 H32        52.1521    1.7789   13.2952 H           1 MOL       0.0517
     80 H33        53.3069    0.5793   12.7020 H           1 MOL       0.0517
     81 H34        53.4903    1.2758   14.3281 H           1 MOL       0.0517
     82 H35        54.9187   -2.6360   14.5747 H           1 MOL       0.0487
     83 H36        55.0729   -0.8678   14.6074 H           1 MOL       0.0487
     84 H37        54.6014   -1.6931   13.1036 H           1 MOL       0.0487
     85 H38        50.4729    0.1609   16.2393 H           1 MOL       0.0566
     86 H39        49.3285    0.9276   17.7438 H           1 MOL       0.1875
     87 H40        46.8129    1.4981   18.9784 H           1 MOL       0.0716
     88 H41        48.2448    1.9450   20.9223 H           1 MOL       0.0274
     89 H42        48.7919    2.8030   19.4828 H           1 MOL       0.0274
     90 H43        49.6663    1.3672   20.0257 H           1 MOL       0.0274
     91 H44        45.3871   -0.3196   18.8588 H           1 MOL       0.0557
     92 H45        44.7088   -2.4844   19.6558 H           1 MOL       0.0599
     93 H46        46.2839   -3.8992   20.8453 H           1 MOL       0.0559
     94 H47        48.5566   -3.1361   21.2204 H           1 MOL       0.0599
     95 H48        49.2581   -0.9830   20.4365 H           1 MOL       0.0557
@<TRIPOS>BOND
     1     1     2   1
     2     2     3   1
     3     2     4   1
     4     4     5   1
     5     5     6  am
     6     6     7   2
     7     6     8   1
     8     8     9   1
     9     8    12   1
    10     9    10   1
    11     9    11   1
    12    12    13   1
    13    13    14   1
    14    14    15   1
    15    14    22   1
    16    15    16   1
    17    16    17  ar
    18    16    21  ar
    19    17    18  ar
    20    18    19  ar
    21    19    20  ar
    22    20    21  ar
    23    22    23  am
    24    23    24   2
    25    23    25   1
    26    25    26  ar
    27    25    27  ar
    28    26    36  ar
    29    27    28  ar
    30    28    29   1
    31    28    35  ar
    32    29    30   1
    33    29    31  am
    34    31    32   2
    35    31    33   2
    36    31    34   1
    37    35    36  ar
    38    36    37   1
    39    37    38   2
    40    37    39  am
    41    39    40   1
    42    40    41   1
    43    40    42   1
    44    42    43  ar
    45    42    47  ar
    46    43    44  ar
    47    44    45  ar
    48    45    46  ar
    49    46    47  ar
    50     1    48   1
    51     1    49   1
    52     1    50   1
    53     2    51   1
    54     3    52   1
    55     3    53   1
    56     3    54   1
    57     4    55   1
    58     4    56   1
    59     5    57   1
    60     8    58   1
    61     9    59   1
    62    10    60   1
    63    10    61   1
    64    10    62   1
    65    11    63   1
    66    12    64   1
    67    12    65   1
    68    13    66   1
    69    13    67   1
    70    14    68   1
    71    15    69   1
    72    15    70   1
    73    17    71   1
    74    18    72   1
    75    19    73   1
    76    20    74   1
    77    21    75   1
    78    22    76   1
    79    26    77   1
    80    27    78   1
    81    30    79   1
    82    30    80   1
    83    30    81   1
    84    34    82   1
    85    34    83   1
    86    34    84   1
    87    35    85   1
    88    39    86   1
    89    40    87   1
    90    41    88   1
    91    41    89   1
    92    41    90   1
    93    43    91   1
    94    44    92   1
    95    45    93   1
    96    46    94   1
    97    47    95   1
@<TRIPOS>SUBSTRUCTURE
     1  MOL      1

