@<TRIPOS>MOLECULE
4gid_ligand_035
    95    97
SMALL
GAST_HUCK
****
This file was generated by PARSER (from files_GN.cpp)

@<TRIPOS>ATOM
      1 CBK        38.0487   -2.0189   14.2111 C.3         1 MOL      -0.0608
      2 CBL        39.2456   -3.0106   14.2758 C.3         1 MOL      -0.0265
      3 CBM        38.9949   -4.2092   13.3191 C.3         1 MOL      -0.0608
      4 CBN        40.6154   -2.2902   14.0449 C.3         1 MOL       0.0334
      5 NBO        41.0627   -2.3757   12.6833 N.am        1 MOL      -0.2820
      6 CBP        41.9641   -3.2204   12.1902 C.2         1 MOL       0.2271
      7 OBV        42.6043   -3.9699   12.9207 O.2         1 MOL      -0.3908
      8 CBG        42.1750   -3.2984   10.7511 C.3         1 MOL       0.0928
      9 CBH        42.0451   -4.7716   10.2124 C.3         1 MOL       0.1121
     10 CBJ        41.0692   -5.7084   10.9847 C.3         1 MOL      -0.0314
     11 OBI        41.6385   -4.7324    8.8368 O.3         1 MOL      -0.3840
     12 NBF        43.4265   -2.5528   10.3936 N.4         1 MOL       0.2497
     13 CAX        44.6381   -3.3281   10.0141 C.3         1 MOL      -0.0062
     14 CAW        45.9307   -2.4823    9.8553 C.3         1 MOL       0.0906
     15 CAY        46.9779   -3.2418    8.9809 C.3         1 MOL       0.0089
     16 CAZ        48.3753   -2.7240    9.0415 C.ar        1 MOL      -0.0406
     17 CBA        48.8415   -1.7782    8.0967 C.ar        1 MOL      -0.0603
     18 CBB        50.1683   -1.3041    8.1440 C.ar        1 MOL      -0.0686
     19 CBC        51.0492   -1.7706    9.1354 C.ar        1 MOL      -0.0687
     20 CBD        50.6032   -2.7015   10.0893 C.ar        1 MOL      -0.0686
     21 CBE        49.2811   -3.1838   10.0330 C.ar        1 MOL      -0.0603
     22 NAV        46.5231   -2.2530   11.1450 N.am        1 MOL      -0.2761
     23 CAT        46.4573   -1.1350   11.8665 C.2         1 MOL       0.2026
     24 OAU        45.6260   -0.2869   11.5537 O.2         1 MOL      -0.3847
     25 CAP        47.3802   -0.8561   12.8930 C.ar        1 MOL       0.0397
     26 CAQ        47.7609    0.4787   13.1900 C.ar        1 MOL      -0.0393
     27 CAO        48.0313   -1.8894   13.6131 C.ar        1 MOL      -0.0214
     28 CAN        49.0196   -1.6059   14.5730 C.ar        1 MOL       0.0754
     29 NAE        49.6497   -2.6223   15.2224 N.am        1 MOL      -0.1796
     30 CBT        50.9719   -3.0282   14.8443 C.3         1 MOL       0.0445
     31 SAB        48.9044   -3.3014   16.5785 S.o2        1 MOL       0.0593
     32 OAC        49.4202   -2.5936   17.9064 O.2         1 MOL      -0.1500
     33 OAD        47.3331   -3.0585   16.4999 O.2         1 MOL      -0.1500
     34 CAA        49.0896   -5.0893   16.7087 C.3         1 MOL       0.0790
     35 CAS        49.3707   -0.2703   14.8375 C.ar        1 MOL      -0.0214
     36 CAR        48.7575    0.8028   14.1481 C.ar        1 MOL       0.0398
     37 CAL        49.1201    2.1352   14.3926 C.2         1 MOL       0.2041
     38 OAM        48.5375    3.0339   13.7977 O.2         1 MOL      -0.3845
     39 NBQ        50.1012    2.4520   15.2348 N.am        1 MOL      -0.2723
     40 CBR        50.5404    3.7624   15.6363 C.3         1 MOL       0.0723
     41 CBS        51.7884    4.1645   14.8125 C.3         1 MOL      -0.0320
     42 CAI        50.8099    3.7628   17.1068 C.ar        1 MOL      -0.0183
     43 CAH        51.6998    2.8210   17.6860 C.ar        1 MOL      -0.0582
     44 CAG        51.9482    2.8093   19.0718 C.ar        1 MOL      -0.0685
     45 CAF        51.3078    3.7411   19.9047 C.ar        1 MOL      -0.0687
     46 CAK        50.4255    4.6866   19.3518 C.ar        1 MOL      -0.0685
     47 CAJ        50.1853    4.7006   17.9639 C.ar        1 MOL      -0.0582
     48 H1         37.1113   -2.5344   14.4444 H           1 MOL       0.0233
     49 H2         37.9678   -1.5873   13.2117 H           1 MOL       0.0233
     50 H3         38.1838   -1.2117   14.9356 H           1 MOL       0.0233
     51 H4         39.2685   -3.4248   15.2941 H           1 MOL       0.0315
     52 H5         39.8620   -4.8697   13.2917 H           1 MOL       0.0233
     53 H6         38.7947   -3.8583   12.3068 H           1 MOL       0.0233
     54 H7         38.1314   -4.7927   13.6549 H           1 MOL       0.0233
     55 H8         41.3427   -2.7092   14.7473 H           1 MOL       0.0522
     56 H9         40.5049   -1.2307   14.3032 H           1 MOL       0.0522
     57 H10        40.6534   -1.7437   12.0641 H           1 MOL       0.1853
     58 H11        41.3608   -2.7412   10.2665 H           1 MOL       0.1125
     59 H12        43.0267   -5.2637   10.2346 H           1 MOL       0.0674
     60 H13        40.9764   -6.6746   10.4632 H           1 MOL       0.0258
     61 H14        40.0762   -5.2532   11.0645 H           1 MOL       0.0258
     62 H15        41.4590   -5.8936   11.9937 H           1 MOL       0.0258
     63 H16        40.6544   -4.7217    8.8618 H           1 MOL       0.2102
     64 H17        43.6634   -1.9631   11.2003 H           1 MOL       0.2037
     65 H18        43.1795   -1.9120    9.6315 H           1 MOL       0.2037
     66 H19        44.4162   -3.8089    9.0640 H           1 MOL       0.0839
     67 H20        44.8098   -4.1028   10.7679 H           1 MOL       0.0839
     68 H21        45.6626   -1.5525    9.3496 H           1 MOL       0.0632
     69 H22        46.6485   -3.2292    7.9402 H           1 MOL       0.0450
     70 H23        46.9781   -4.2927    9.2858 H           1 MOL       0.0450
     71 H24        48.2233   -1.4254    7.3681 H           1 MOL       0.0557
     72 H25        50.4973   -0.6255    7.4530 H           1 MOL       0.0599
     73 H26        52.0124   -1.4274    9.1732 H           1 MOL       0.0559
     74 H27        51.2388   -3.0447   10.8103 H           1 MOL       0.0599
     75 H28        48.9755   -3.8659   10.7332 H           1 MOL       0.0557
     76 H29        47.1690   -2.9193   11.4183 H           1 MOL       0.1852
     77 H30        47.3114    1.2405   12.6724 H           1 MOL       0.0576
     78 H31        47.8155   -2.8734   13.4313 H           1 MOL       0.0566
     79 H32        51.3535   -2.4710   13.9856 H           1 MOL       0.0517
     80 H33        50.9693   -4.0843   14.5771 H           1 MOL       0.0517
     81 H34        51.6622   -2.8765   15.6751 H           1 MOL       0.0517
     82 H35        48.5755   -5.4476   17.5980 H           1 MOL       0.0487
     83 H36        50.1461   -5.3447   16.7774 H           1 MOL       0.0487
     84 H37        48.6607   -5.5640   15.8276 H           1 MOL       0.0487
     85 H38        50.0820   -0.0926   15.5497 H           1 MOL       0.0566
     86 H39        50.6050    1.7151   15.6139 H           1 MOL       0.1875
     87 H40        49.7729    4.5081   15.4121 H           1 MOL       0.0716
     88 H41        52.1535    5.1426   15.1326 H           1 MOL       0.0274
     89 H42        51.5280    4.2242   13.7539 H           1 MOL       0.0274
     90 H43        52.5927    3.4345   14.9275 H           1 MOL       0.0274
     91 H44        52.1736    2.1247   17.1027 H           1 MOL       0.0557
     92 H45        52.5960    2.1280   19.4731 H           1 MOL       0.0599
     93 H46        51.4786    3.7312   20.9155 H           1 MOL       0.0559
     94 H47        49.9610    5.3708   19.9590 H           1 MOL       0.0599
     95 H48        49.5445    5.3997   17.5876 H           1 MOL       0.0557
@<TRIPOS>BOND
     1     1     2   1
     2     2     3   1
     3     2     4   1
     4     4     5   1
     5     5     6  am
     6     6     7   2
     7     6     8   1
     8     8     9   1
     9     8    12   1
    10     9    10   1
    11     9    11   1
    12    12    13   1
    13    13    14   1
    14    14    15   1
    15    14    22   1
    16    15    16   1
    17    16    17  ar
    18    16    21  ar
    19    17    18  ar
    20    18    19  ar
    21    19    20  ar
    22    20    21  ar
    23    22    23  am
    24    23    24   2
    25    23    25   1
    26    25    26  ar
    27    25    27  ar
    28    26    36  ar
    29    27    28  ar
    30    28    29   1
    31    28    35  ar
    32    29    30   1
    33    29    31  am
    34    31    32   2
    35    31    33   2
    36    31    34   1
    37    35    36  ar
    38    36    37   1
    39    37    38   2
    40    37    39  am
    41    39    40   1
    42    40    41   1
    43    40    42   1
    44    42    43  ar
    45    42    47  ar
    46    43    44  ar
    47    44    45  ar
    48    45    46  ar
    49    46    47  ar
    50     1    48   1
    51     1    49   1
    52     1    50   1
    53     2    51   1
    54     3    52   1
    55     3    53   1
    56     3    54   1
    57     4    55   1
    58     4    56   1
    59     5    57   1
    60     8    58   1
    61     9    59   1
    62    10    60   1
    63    10    61   1
    64    10    62   1
    65    11    63   1
    66    12    64   1
    67    12    65   1
    68    13    66   1
    69    13    67   1
    70    14    68   1
    71    15    69   1
    72    15    70   1
    73    17    71   1
    74    18    72   1
    75    19    73   1
    76    20    74   1
    77    21    75   1
    78    22    76   1
    79    26    77   1
    80    27    78   1
    81    30    79   1
    82    30    80   1
    83    30    81   1
    84    34    82   1
    85    34    83   1
    86    34    84   1
    87    35    85   1
    88    39    86   1
    89    40    87   1
    90    41    88   1
    91    41    89   1
    92    41    90   1
    93    43    91   1
    94    44    92   1
    95    45    93   1
    96    46    94   1
    97    47    95   1
@<TRIPOS>SUBSTRUCTURE
     1  MOL      1

