@<TRIPOS>MOLECULE
4gid_ligand_076
    95    97
SMALL
GAST_HUCK
****
This file was generated by PARSER (from files_GN.cpp)

@<TRIPOS>ATOM
      1 CBK        40.2371   -9.9822   10.7499 C.3         1 MOL      -0.0608
      2 CBL        40.5447   -9.5943   12.2215 C.3         1 MOL      -0.0265
      3 CBM        42.0624   -9.6171   12.5434 C.3         1 MOL      -0.0608
      4 CBN        39.9024   -8.2336   12.5980 C.3         1 MOL       0.0334
      5 NBO        40.5289   -7.1268   11.9564 N.am        1 MOL      -0.2820
      6 CBP        40.2009   -6.5751   10.7986 C.2         1 MOL       0.2271
      7 OBV        39.3263   -7.0569   10.0954 O.2         1 MOL      -0.3908
      8 CBG        40.8754   -5.3365   10.4057 C.3         1 MOL       0.0928
      9 CBH        42.4200   -5.5079   10.2378 C.3         1 MOL       0.1121
     10 CBJ        42.8104   -6.4372    9.0613 C.3         1 MOL      -0.0314
     11 OBI        43.0354   -4.2380   10.0117 O.3         1 MOL      -0.3840
     12 NBF        40.5057   -4.1317   11.2438 N.4         1 MOL       0.2497
     13 CAX        40.0617   -4.2992   12.6623 C.3         1 MOL      -0.0062
     14 CAW        39.6444   -2.9800   13.3785 C.3         1 MOL       0.0906
     15 CAY        40.8101   -2.2352   14.0946 C.3         1 MOL       0.0089
     16 CAZ        41.7054   -1.4850   13.1756 C.ar        1 MOL      -0.0406
     17 CBA        42.7955   -2.1236   12.5434 C.ar        1 MOL      -0.0603
     18 CBB        43.6577   -1.4016   11.6976 C.ar        1 MOL      -0.0686
     19 CBC        43.4422   -0.0319   11.4799 C.ar        1 MOL      -0.0687
     20 CBD        42.3644    0.6171   12.1041 C.ar        1 MOL      -0.0686
     21 CBE        41.4992   -0.1063   12.9453 C.ar        1 MOL      -0.0603
     22 NAV        38.6604   -3.3019   14.3860 N.am        1 MOL      -0.2761
     23 CAT        37.3903   -2.9111   14.4076 C.2         1 MOL       0.2026
     24 OAU        36.9110   -2.2206   13.5220 O.2         1 MOL      -0.3847
     25 CAP        36.5367   -3.3948   15.3712 C.ar        1 MOL       0.0397
     26 CAQ        36.5469   -2.8495   16.6765 C.ar        1 MOL      -0.0393
     27 CAO        35.6069   -4.4090   15.0539 C.ar        1 MOL      -0.0214
     28 CAN        34.6918   -4.8704   16.0233 C.ar        1 MOL       0.0754
     29 NAE        33.8543   -5.9041   15.7430 N.am        1 MOL      -0.1796
     30 CBT        34.3230   -7.2584   15.7541 C.3         1 MOL       0.0445
     31 SAB        32.2905   -5.5266   15.2259 S.o2        1 MOL       0.0593
     32 OAC        31.6653   -4.4514   16.2166 O.2         1 MOL      -0.1500
     33 OAD        32.3869   -4.8703   13.7830 O.2         1 MOL      -0.1500
     34 CAA        31.1390   -6.9137   15.1819 C.3         1 MOL       0.0790
     35 CAS        34.6630   -4.2638   17.2983 C.ar        1 MOL      -0.0214
     36 CAR        35.5882   -3.2546   17.6338 C.ar        1 MOL       0.0398
     37 CAL        35.5385   -2.6644   18.8768 C.2         1 MOL       0.2041
     38 OAM        34.4635   -2.2191   19.2638 O.2         1 MOL      -0.3845
     39 NBQ        36.6400   -2.6416   19.6222 N.am        1 MOL      -0.2723
     40 CBR        36.8071   -2.0527   20.9325 C.3         1 MOL       0.0723
     41 CBS        35.6544   -2.5141   21.8790 C.3         1 MOL      -0.0320
     42 CAI        37.0861   -0.5735   20.9158 C.ar        1 MOL      -0.0183
     43 CAH        37.1829    0.1624   22.1268 C.ar        1 MOL      -0.0582
     44 CAG        37.5343    1.5231   22.1362 C.ar        1 MOL      -0.0685
     45 CAF        37.8292    2.1825   20.9299 C.ar        1 MOL      -0.0687
     46 CAK        37.7667    1.4795   19.7185 C.ar        1 MOL      -0.0685
     47 CAJ        37.4038    0.1194   19.7151 C.ar        1 MOL      -0.0582
     48 H1         40.6008  -10.9907   10.5459 H           1 MOL       0.0233
     49 H2         40.7063   -9.2924   10.0497 H           1 MOL       0.0233
     50 H3         39.1590   -9.9763   10.5745 H           1 MOL       0.0233
     51 H4         40.0750  -10.3464   12.8588 H           1 MOL       0.0315
     52 H5         42.2136   -9.4320   13.6053 H           1 MOL       0.0233
     53 H6         42.6040   -8.8576   11.9723 H           1 MOL       0.0233
     54 H7         42.4873  -10.5877   12.3146 H           1 MOL       0.0233
     55 H8         40.0291   -8.0837   13.6765 H           1 MOL       0.0522
     56 H9         38.8265   -8.2521   12.4002 H           1 MOL       0.0522
     57 H10        41.2475   -6.7109   12.4696 H           1 MOL       0.1853
     58 H11        40.5195   -5.0700    9.4035 H           1 MOL       0.1125
     59 H12        42.8399   -5.9059   11.1631 H           1 MOL       0.0674
     60 H13        43.8904   -6.4567    8.9341 H           1 MOL       0.0258
     61 H14        42.3635   -6.0883    8.1262 H           1 MOL       0.0258
     62 H15        42.4784   -7.4539    9.2481 H           1 MOL       0.0258
     63 H16        42.6554   -3.9010    9.1722 H           1 MOL       0.2102
     64 H17        39.7260   -3.6796   10.7621 H           1 MOL       0.2037
     65 H18        41.2851   -3.4847   11.2290 H           1 MOL       0.2037
     66 H19        40.8470   -4.8071   13.2296 H           1 MOL       0.0839
     67 H20        39.1767   -4.9397   12.6577 H           1 MOL       0.0839
     68 H21        39.2149   -2.3078   12.6238 H           1 MOL       0.0632
     69 H22        41.3902   -2.9462   14.6900 H           1 MOL       0.0450
     70 H23        40.3768   -1.5305   14.8169 H           1 MOL       0.0450
     71 H24        42.9726   -3.1197   12.7006 H           1 MOL       0.0557
     72 H25        44.4458   -1.8751   11.2519 H           1 MOL       0.0599
     73 H26        44.0733    0.4957   10.8724 H           1 MOL       0.0559
     74 H27        42.2097    1.6148   11.9517 H           1 MOL       0.0599
     75 H28        40.7150    0.3827   13.3870 H           1 MOL       0.0557
     76 H29        38.9463   -3.9201   15.0808 H           1 MOL       0.1852
     77 H30        37.2151   -2.1081   16.9092 H           1 MOL       0.0576
     78 H31        35.6011   -4.8327   14.1218 H           1 MOL       0.0566
     79 H32        35.3677   -7.3424   16.0678 H           1 MOL       0.0517
     80 H33        34.2371   -7.6937   14.7564 H           1 MOL       0.0517
     81 H34        33.7214   -7.8432   16.4513 H           1 MOL       0.0517
     82 H35        30.1507   -6.5579   14.8828 H           1 MOL       0.0487
     83 H36        31.0737   -7.3692   16.1738 H           1 MOL       0.0487
     84 H37        31.4862   -7.6603   14.4624 H           1 MOL       0.0487
     85 H38        33.9814   -4.5895   17.9909 H           1 MOL       0.0566
     86 H39        37.4282   -3.0612   19.2430 H           1 MOL       0.1875
     87 H40        37.7152   -2.5069   21.3322 H           1 MOL       0.0716
     88 H41        35.9309   -2.3987   22.9254 H           1 MOL       0.0274
     89 H42        35.4454   -3.5785   21.7143 H           1 MOL       0.0274
     90 H43        34.7409   -1.9479   21.6960 H           1 MOL       0.0274
     91 H44        37.0092   -0.2874   23.0283 H           1 MOL       0.0557
     92 H45        37.5929    2.0325   23.0234 H           1 MOL       0.0599
     93 H46        38.1110    3.1664   20.9366 H           1 MOL       0.0559
     94 H47        38.0008    1.9488   18.8400 H           1 MOL       0.0599
     95 H48        37.4060   -0.3605   18.8134 H           1 MOL       0.0557
@<TRIPOS>BOND
     1     1     2   1
     2     2     3   1
     3     2     4   1
     4     4     5   1
     5     5     6  am
     6     6     7   2
     7     6     8   1
     8     8     9   1
     9     8    12   1
    10     9    10   1
    11     9    11   1
    12    12    13   1
    13    13    14   1
    14    14    15   1
    15    14    22   1
    16    15    16   1
    17    16    17  ar
    18    16    21  ar
    19    17    18  ar
    20    18    19  ar
    21    19    20  ar
    22    20    21  ar
    23    22    23  am
    24    23    24   2
    25    23    25   1
    26    25    26  ar
    27    25    27  ar
    28    26    36  ar
    29    27    28  ar
    30    28    29   1
    31    28    35  ar
    32    29    30   1
    33    29    31  am
    34    31    32   2
    35    31    33   2
    36    31    34   1
    37    35    36  ar
    38    36    37   1
    39    37    38   2
    40    37    39  am
    41    39    40   1
    42    40    41   1
    43    40    42   1
    44    42    43  ar
    45    42    47  ar
    46    43    44  ar
    47    44    45  ar
    48    45    46  ar
    49    46    47  ar
    50     1    48   1
    51     1    49   1
    52     1    50   1
    53     2    51   1
    54     3    52   1
    55     3    53   1
    56     3    54   1
    57     4    55   1
    58     4    56   1
    59     5    57   1
    60     8    58   1
    61     9    59   1
    62    10    60   1
    63    10    61   1
    64    10    62   1
    65    11    63   1
    66    12    64   1
    67    12    65   1
    68    13    66   1
    69    13    67   1
    70    14    68   1
    71    15    69   1
    72    15    70   1
    73    17    71   1
    74    18    72   1
    75    19    73   1
    76    20    74   1
    77    21    75   1
    78    22    76   1
    79    26    77   1
    80    27    78   1
    81    30    79   1
    82    30    80   1
    83    30    81   1
    84    34    82   1
    85    34    83   1
    86    34    84   1
    87    35    85   1
    88    39    86   1
    89    40    87   1
    90    41    88   1
    91    41    89   1
    92    41    90   1
    93    43    91   1
    94    44    92   1
    95    45    93   1
    96    46    94   1
    97    47    95   1
@<TRIPOS>SUBSTRUCTURE
     1  MOL      1

