@<TRIPOS>MOLECULE
4gid_ligand_030
    95    97
SMALL
GAST_HUCK
****
This file was generated by PARSER (from files_GN.cpp)

@<TRIPOS>ATOM
      1 CBK        36.1238   -7.9272   10.6042 C.3         1 MOL      -0.0608
      2 CBL        37.6643   -8.0469   10.7585 C.3         1 MOL      -0.0265
      3 CBM        38.0611   -9.3962   11.4140 C.3         1 MOL      -0.0608
      4 CBN        38.4073   -7.8116    9.3955 C.3         1 MOL       0.0334
      5 NBO        39.3395   -6.7243    9.4452 N.am        1 MOL      -0.2820
      6 CBP        40.4680   -6.6826   10.1400 C.2         1 MOL       0.2271
      7 OBV        40.7952   -7.6406   10.8315 O.2         1 MOL      -0.3908
      8 CBG        41.2400   -5.4381   10.1802 C.3         1 MOL       0.0928
      9 CBH        42.7910   -5.6112   10.3647 C.3         1 MOL       0.1121
     10 CBJ        43.4972   -4.3686   10.9619 C.3         1 MOL      -0.0314
     11 OBI        43.1514   -6.7597   11.1368 O.3         1 MOL      -0.3840
     12 NBF        40.5852   -4.4062   11.0346 N.4         1 MOL       0.2497
     13 CAX        40.2627   -4.6687   12.4528 C.3         1 MOL      -0.0062
     14 CAW        39.9025   -3.3341   13.1910 C.3         1 MOL       0.0906
     15 CAY        41.1352   -2.6112   13.8500 C.3         1 MOL       0.0089
     16 CAZ        41.6042   -1.3953   13.1222 C.ar        1 MOL      -0.0406
     17 CBA        42.8201   -1.3840   12.4000 C.ar        1 MOL      -0.0603
     18 CBB        43.2547   -0.2152   11.7426 C.ar        1 MOL      -0.0686
     19 CBC        42.4724    0.9502   11.7911 C.ar        1 MOL      -0.0687
     20 CBD        41.2651    0.9564   12.5091 C.ar        1 MOL      -0.0686
     21 CBE        40.8386   -0.2056   13.1868 C.ar        1 MOL      -0.0603
     22 NAV        38.9069   -3.5739   14.2076 N.am        1 MOL      -0.2761
     23 CAT        37.5900   -3.4907   14.0709 C.2         1 MOL       0.2026
     24 OAU        37.0808   -3.2131   12.9870 O.2         1 MOL      -0.3847
     25 CAP        36.7654   -3.8106   15.1387 C.ar        1 MOL       0.0397
     26 CAQ        37.0016   -3.2713   16.4261 C.ar        1 MOL      -0.0393
     27 CAO        35.7172   -4.7395   14.9752 C.ar        1 MOL      -0.0214
     28 CAN        34.9613   -5.1755   16.0782 C.ar        1 MOL       0.0754
     29 NAE        34.0052   -6.1285   15.9115 N.am        1 MOL      -0.1796
     30 CBT        34.3631   -7.5153   15.8428 C.3         1 MOL       0.0445
     31 SAB        32.4593   -5.6195   15.4480 S.o2        1 MOL       0.0593
     32 OAC        31.9764   -4.4581   16.4241 O.2         1 MOL      -0.1500
     33 OAD        32.5188   -5.0321   13.9745 O.2         1 MOL      -0.1500
     34 CAA        31.1859   -6.8964   15.5008 C.3         1 MOL       0.0790
     35 CAS        35.2338   -4.6566   17.3596 C.ar        1 MOL      -0.0214
     36 CAR        36.2457   -3.6816   17.5495 C.ar        1 MOL       0.0398
     37 CAL        36.5068   -3.1424   18.8069 C.2         1 MOL       0.2041
     38 OAM        36.7826   -1.9444   18.8939 O.2         1 MOL      -0.3845
     39 NBQ        36.4794   -3.8942   19.8988 N.am        1 MOL      -0.2723
     40 CBR        36.7608   -3.4485   21.2340 C.3         1 MOL       0.0723
     41 CBS        37.1933   -4.6405   22.1277 C.3         1 MOL      -0.0320
     42 CAI        35.5779   -2.7067   21.7650 C.ar        1 MOL      -0.0183
     43 CAH        34.3407   -3.3613   21.9907 C.ar        1 MOL      -0.0582
     44 CAG        33.2155   -2.6489   22.4427 C.ar        1 MOL      -0.0685
     45 CAF        33.3077   -1.2652   22.6787 C.ar        1 MOL      -0.0687
     46 CAK        34.5231   -0.5963   22.4547 C.ar        1 MOL      -0.0685
     47 CAJ        35.6494   -1.3118   22.0116 C.ar        1 MOL      -0.0582
     48 H1         35.6377   -7.9973   11.5782 H           1 MOL       0.0233
     49 H2         35.7401   -8.7188    9.9567 H           1 MOL       0.0233
     50 H3         35.8587   -6.9634   10.1661 H           1 MOL       0.0233
     51 H4         37.9568   -7.2622   11.4589 H           1 MOL       0.0315
     52 H5         39.1404   -9.4648   11.5427 H           1 MOL       0.0233
     53 H6         37.7404  -10.2323   10.7904 H           1 MOL       0.0233
     54 H7         37.6038   -9.4901   12.4001 H           1 MOL       0.0233
     55 H8         37.6927   -7.5672    8.6064 H           1 MOL       0.0522
     56 H9         38.9328   -8.7116    9.0579 H           1 MOL       0.0522
     57 H10        39.1100   -5.9279    8.9406 H           1 MOL       0.1853
     58 H11        41.1554   -5.0104    9.1756 H           1 MOL       0.1125
     59 H12        43.2317   -5.7938    9.3781 H           1 MOL       0.0674
     60 H13        44.5832   -4.4553   10.8581 H           1 MOL       0.0258
     61 H14        43.2598   -4.3150   12.0248 H           1 MOL       0.0258
     62 H15        43.1801   -3.4420   10.4696 H           1 MOL       0.0258
     63 H16        42.7197   -6.6772   12.0139 H           1 MOL       0.2102
     64 H17        39.6990   -4.1927   10.5776 H           1 MOL       0.2037
     65 H18        41.1548   -3.5617   10.9994 H           1 MOL       0.2037
     66 H19        41.0938   -5.1778   12.9447 H           1 MOL       0.0839
     67 H20        39.4022   -5.3380   12.4802 H           1 MOL       0.0839
     68 H21        39.4628   -2.6514   12.4514 H           1 MOL       0.0632
     69 H22        41.9565   -3.3198   13.9606 H           1 MOL       0.0450
     70 H23        40.8976   -2.2923   14.8719 H           1 MOL       0.0450
     71 H24        43.4124   -2.2108   12.3633 H           1 MOL       0.0557
     72 H25        44.1415   -0.2134   11.2407 H           1 MOL       0.0599
     73 H26        42.7876    1.7969   11.3099 H           1 MOL       0.0559
     74 H27        40.6936    1.8023   12.5533 H           1 MOL       0.0599
     75 H28        39.9650   -0.1760   13.7284 H           1 MOL       0.0557
     76 H29        39.2381   -3.8822   15.0704 H           1 MOL       0.1852
     77 H30        37.7523   -2.5819   16.5466 H           1 MOL       0.0576
     78 H31        35.5311   -5.1442   14.0532 H           1 MOL       0.0566
     79 H32        35.4131   -7.6875   16.0980 H           1 MOL       0.0517
     80 H33        34.1969   -7.8950   14.8321 H           1 MOL       0.0517
     81 H34        33.7532   -8.0903   16.5421 H           1 MOL       0.0517
     82 H35        30.2235   -6.4606   15.2305 H           1 MOL       0.0487
     83 H36        31.1249   -7.3119   16.5063 H           1 MOL       0.0487
     84 H37        31.4326   -7.6886   14.7931 H           1 MOL       0.0487
     85 H38        34.6702   -4.9750   18.1510 H           1 MOL       0.0566
     86 H39        36.2950   -4.8409   19.7833 H           1 MOL       0.1875
     87 H40        37.6362   -2.7902   21.1970 H           1 MOL       0.0716
     88 H41        37.3544   -4.3026   23.1556 H           1 MOL       0.0274
     89 H42        38.1309   -5.0626   21.7571 H           1 MOL       0.0274
     90 H43        36.4413   -5.4318   22.1318 H           1 MOL       0.0274
     91 H44        34.2446   -4.3618   21.8059 H           1 MOL       0.0557
     92 H45        32.3270   -3.1349   22.6000 H           1 MOL       0.0599
     93 H46        32.4899   -0.7489   23.0066 H           1 MOL       0.0559
     94 H47        34.5858    0.4127   22.6149 H           1 MOL       0.0599
     95 H48        36.5202   -0.8009   21.8445 H           1 MOL       0.0557
@<TRIPOS>BOND
     1     1     2   1
     2     2     3   1
     3     2     4   1
     4     4     5   1
     5     5     6  am
     6     6     7   2
     7     6     8   1
     8     8     9   1
     9     8    12   1
    10     9    10   1
    11     9    11   1
    12    12    13   1
    13    13    14   1
    14    14    15   1
    15    14    22   1
    16    15    16   1
    17    16    17  ar
    18    16    21  ar
    19    17    18  ar
    20    18    19  ar
    21    19    20  ar
    22    20    21  ar
    23    22    23  am
    24    23    24   2
    25    23    25   1
    26    25    26  ar
    27    25    27  ar
    28    26    36  ar
    29    27    28  ar
    30    28    29   1
    31    28    35  ar
    32    29    30   1
    33    29    31  am
    34    31    32   2
    35    31    33   2
    36    31    34   1
    37    35    36  ar
    38    36    37   1
    39    37    38   2
    40    37    39  am
    41    39    40   1
    42    40    41   1
    43    40    42   1
    44    42    43  ar
    45    42    47  ar
    46    43    44  ar
    47    44    45  ar
    48    45    46  ar
    49    46    47  ar
    50     1    48   1
    51     1    49   1
    52     1    50   1
    53     2    51   1
    54     3    52   1
    55     3    53   1
    56     3    54   1
    57     4    55   1
    58     4    56   1
    59     5    57   1
    60     8    58   1
    61     9    59   1
    62    10    60   1
    63    10    61   1
    64    10    62   1
    65    11    63   1
    66    12    64   1
    67    12    65   1
    68    13    66   1
    69    13    67   1
    70    14    68   1
    71    15    69   1
    72    15    70   1
    73    17    71   1
    74    18    72   1
    75    19    73   1
    76    20    74   1
    77    21    75   1
    78    22    76   1
    79    26    77   1
    80    27    78   1
    81    30    79   1
    82    30    80   1
    83    30    81   1
    84    34    82   1
    85    34    83   1
    86    34    84   1
    87    35    85   1
    88    39    86   1
    89    40    87   1
    90    41    88   1
    91    41    89   1
    92    41    90   1
    93    43    91   1
    94    44    92   1
    95    45    93   1
    96    46    94   1
    97    47    95   1
@<TRIPOS>SUBSTRUCTURE
     1  MOL      1

