@<TRIPOS>MOLECULE
4gid_ligand_029
    95    97
SMALL
GAST_HUCK
****
This file was generated by PARSER (from files_GN.cpp)

@<TRIPOS>ATOM
      1 CBK        46.6147    1.3232   13.7543 C.3         1 MOL      -0.0608
      2 CBL        46.1218    2.1039   12.5029 C.3         1 MOL      -0.0265
      3 CBM        47.1082    1.9329   11.3170 C.3         1 MOL      -0.0608
      4 CBN        44.6709    1.7143   12.0801 C.3         1 MOL       0.0334
      5 NBO        44.5070    0.3032   11.9352 N.am        1 MOL      -0.2820
      6 CBP        44.4064   -0.4251   10.8234 C.2         1 MOL       0.2271
      7 OBV        44.4605    0.0972    9.7086 O.2         1 MOL      -0.3908
      8 CBG        44.2811   -1.8722   10.9565 C.3         1 MOL       0.0928
      9 CBH        45.6403   -2.6452   10.9941 C.3         1 MOL       0.1121
     10 CBJ        46.5149   -2.5340    9.7209 C.3         1 MOL      -0.0314
     11 OBI        46.4005   -2.2273   12.1270 O.3         1 MOL      -0.3840
     12 NBF        43.3940   -2.5097    9.9234 N.4         1 MOL       0.2497
     13 CAX        42.1673   -3.2363   10.3575 C.3         1 MOL      -0.0062
     14 CAW        42.2291   -4.2568   11.5731 C.3         1 MOL       0.0906
     15 CAY        42.2280   -5.7819   11.2095 C.3         1 MOL       0.0089
     16 CAZ        40.9068   -6.3690   10.8406 C.ar        1 MOL      -0.0406
     17 CBA        40.1531   -7.1105   11.7861 C.ar        1 MOL      -0.0603
     18 CBB        38.9521   -7.7365   11.4115 C.ar        1 MOL      -0.0686
     19 CBC        38.4880   -7.6343   10.0901 C.ar        1 MOL      -0.0687
     20 CBD        39.2252   -6.9056    9.1425 C.ar        1 MOL      -0.0686
     21 CBE        40.4315   -6.2842    9.5102 C.ar        1 MOL      -0.0603
     22 NAV        41.3536   -3.9845   12.6895 N.am        1 MOL      -0.2761
     23 CAT        40.1915   -3.3196   12.7549 C.2         1 MOL       0.2026
     24 OAU        39.7233   -2.7094   11.7838 O.2         1 MOL      -0.3847
     25 CAP        39.4745   -3.2858   13.9367 C.ar        1 MOL       0.0397
     26 CAQ        38.1353   -3.7175   13.9059 C.ar        1 MOL      -0.0393
     27 CAO        39.9932   -2.7464   15.1413 C.ar        1 MOL      -0.0214
     28 CAN        39.1706   -2.6296   16.2852 C.ar        1 MOL       0.0754
     29 NAE        39.6749   -2.0837   17.4340 N.am        1 MOL      -0.1796
     30 CBT        39.6163   -0.6701   17.6866 C.3         1 MOL       0.0445
     31 SAB        40.1488   -3.1054   18.6961 S.o2        1 MOL       0.0593
     32 OAC        38.9746   -3.2655   19.7579 O.2         1 MOL      -0.1500
     33 OAD        40.4982   -4.5541   18.1441 O.2         1 MOL      -0.1500
     34 CAA        41.6454   -2.5779   19.5538 C.3         1 MOL       0.0790
     35 CAS        37.8272   -3.0431   16.2114 C.ar        1 MOL      -0.0214
     36 CAR        37.2814   -3.6031   15.0302 C.ar        1 MOL       0.0398
     37 CAL        35.9606   -4.0156   14.9272 C.2         1 MOL       0.2041
     38 OAM        35.6743   -4.9618   14.1872 O.2         1 MOL      -0.3845
     39 NBQ        34.9876   -3.3962   15.5823 N.am        1 MOL      -0.2723
     40 CBR        33.5920   -3.7308   15.5935 C.3         1 MOL       0.0723
     41 CBS        32.7688   -2.4303   15.4261 C.3         1 MOL      -0.0320
     42 CAI        33.2076   -4.4967   16.8227 C.ar        1 MOL      -0.0183
     43 CAH        33.9358   -4.4257   18.0375 C.ar        1 MOL      -0.0582
     44 CAG        33.5502   -5.1785   19.1600 C.ar        1 MOL      -0.0685
     45 CAF        32.4213   -6.0130   19.0921 C.ar        1 MOL      -0.0687
     46 CAK        31.6785   -6.0927   17.9029 C.ar        1 MOL      -0.0685
     47 CAJ        32.0683   -5.3408   16.7774 C.ar        1 MOL      -0.0582
     48 H1         47.5865    1.7035   14.0825 H           1 MOL       0.0233
     49 H2         46.7227    0.2589   13.5317 H           1 MOL       0.0233
     50 H3         45.9097    1.4369   14.5817 H           1 MOL       0.0233
     51 H4         46.1135    3.1644   12.7713 H           1 MOL       0.0315
     52 H5         46.8004    2.5600   10.4773 H           1 MOL       0.0233
     53 H6         47.1345    0.8927   10.9850 H           1 MOL       0.0233
     54 H7         48.1173    2.2302   11.6102 H           1 MOL       0.0233
     55 H8         44.3957    2.2608   11.1757 H           1 MOL       0.0522
     56 H9         43.9788    2.0278   12.8628 H           1 MOL       0.0522
     57 H10        44.4879   -0.2012   12.7683 H           1 MOL       0.1853
     58 H11        43.8069   -2.0108   11.9390 H           1 MOL       0.1125
     59 H12        45.4147   -3.7045   11.1494 H           1 MOL       0.0674
     60 H13        47.4272   -3.1122    9.8612 H           1 MOL       0.0258
     61 H14        46.7869   -1.4983    9.5301 H           1 MOL       0.0258
     62 H15        45.9889   -2.9331    8.8545 H           1 MOL       0.0258
     63 H16        47.0384   -2.9563   12.2815 H           1 MOL       0.2102
     64 H17        43.9477   -3.1592    9.3613 H           1 MOL       0.2037
     65 H18        43.0559   -1.7646    9.3071 H           1 MOL       0.2037
     66 H19        41.7680   -3.7593    9.4767 H           1 MOL       0.0839
     67 H20        41.4689   -2.4231   10.5794 H           1 MOL       0.0839
     68 H21        43.2215   -4.1326   12.0152 H           1 MOL       0.0632
     69 H22        42.6092   -6.3311   12.0735 H           1 MOL       0.0450
     70 H23        42.9558   -5.9554   10.4148 H           1 MOL       0.0450
     71 H24        40.4903   -7.2211   12.7471 H           1 MOL       0.0557
     72 H25        38.4229   -8.2802   12.0922 H           1 MOL       0.0599
     73 H26        37.6217   -8.1054    9.8131 H           1 MOL       0.0559
     74 H27        38.8945   -6.8406    8.1834 H           1 MOL       0.0599
     75 H28        40.9740   -5.7899    8.8004 H           1 MOL       0.0557
     76 H29        41.5908   -4.4615   13.5060 H           1 MOL       0.1852
     77 H30        37.7630   -4.1160   13.0329 H           1 MOL       0.0576
     78 H31        40.9596   -2.4111   15.1683 H           1 MOL       0.0566
     79 H32        39.2052   -0.1088   16.8433 H           1 MOL       0.0517
     80 H33        40.6194   -0.2825   17.8853 H           1 MOL       0.0517
     81 H34        38.9884   -0.4644   18.5598 H           1 MOL       0.0517
     82 H35        41.9233   -3.3283   20.2975 H           1 MOL       0.0487
     83 H36        41.4692   -1.6241   20.0566 H           1 MOL       0.0487
     84 H37        42.4608   -2.4632   18.8361 H           1 MOL       0.0487
     85 H38        37.2479   -2.9436   17.0475 H           1 MOL       0.0566
     86 H39        35.2457   -2.6365   16.1317 H           1 MOL       0.1875
     87 H40        33.3532   -4.3624   14.7284 H           1 MOL       0.0716
     88 H41        31.7089   -2.6642   15.3197 H           1 MOL       0.0274
     89 H42        33.0910   -1.9021   14.5289 H           1 MOL       0.0274
     90 H43        32.9071   -1.7693   16.2846 H           1 MOL       0.0274
     91 H44        34.7594   -3.8271   18.1206 H           1 MOL       0.0557
     92 H45        34.0923   -5.1228   20.0233 H           1 MOL       0.0599
     93 H46        32.1409   -6.5622   19.9058 H           1 MOL       0.0559
     94 H47        30.8551   -6.6966   17.8496 H           1 MOL       0.0599
     95 H48        31.5158   -5.4197   15.9193 H           1 MOL       0.0557
@<TRIPOS>BOND
     1     1     2   1
     2     2     3   1
     3     2     4   1
     4     4     5   1
     5     5     6  am
     6     6     7   2
     7     6     8   1
     8     8     9   1
     9     8    12   1
    10     9    10   1
    11     9    11   1
    12    12    13   1
    13    13    14   1
    14    14    15   1
    15    14    22   1
    16    15    16   1
    17    16    17  ar
    18    16    21  ar
    19    17    18  ar
    20    18    19  ar
    21    19    20  ar
    22    20    21  ar
    23    22    23  am
    24    23    24   2
    25    23    25   1
    26    25    26  ar
    27    25    27  ar
    28    26    36  ar
    29    27    28  ar
    30    28    29   1
    31    28    35  ar
    32    29    30   1
    33    29    31  am
    34    31    32   2
    35    31    33   2
    36    31    34   1
    37    35    36  ar
    38    36    37   1
    39    37    38   2
    40    37    39  am
    41    39    40   1
    42    40    41   1
    43    40    42   1
    44    42    43  ar
    45    42    47  ar
    46    43    44  ar
    47    44    45  ar
    48    45    46  ar
    49    46    47  ar
    50     1    48   1
    51     1    49   1
    52     1    50   1
    53     2    51   1
    54     3    52   1
    55     3    53   1
    56     3    54   1
    57     4    55   1
    58     4    56   1
    59     5    57   1
    60     8    58   1
    61     9    59   1
    62    10    60   1
    63    10    61   1
    64    10    62   1
    65    11    63   1
    66    12    64   1
    67    12    65   1
    68    13    66   1
    69    13    67   1
    70    14    68   1
    71    15    69   1
    72    15    70   1
    73    17    71   1
    74    18    72   1
    75    19    73   1
    76    20    74   1
    77    21    75   1
    78    22    76   1
    79    26    77   1
    80    27    78   1
    81    30    79   1
    82    30    80   1
    83    30    81   1
    84    34    82   1
    85    34    83   1
    86    34    84   1
    87    35    85   1
    88    39    86   1
    89    40    87   1
    90    41    88   1
    91    41    89   1
    92    41    90   1
    93    43    91   1
    94    44    92   1
    95    45    93   1
    96    46    94   1
    97    47    95   1
@<TRIPOS>SUBSTRUCTURE
     1  MOL      1

