@<TRIPOS>MOLECULE
4gid_ligand_009
    95    97
SMALL
GAST_HUCK
****
This file was generated by PARSER (from files_GN.cpp)

@<TRIPOS>ATOM
      1 CBK        40.1496   -2.2876   15.3656 C.3         1 MOL      -0.0608
      2 CBL        40.0854   -1.9865   13.8392 C.3         1 MOL      -0.0265
      3 CBM        41.4273   -1.3484   13.3751 C.3         1 MOL      -0.0608
      4 CBN        39.6158   -3.2545   13.0402 C.3         1 MOL       0.0334
      5 NBO        40.1706   -3.4182   11.7310 N.am        1 MOL      -0.2820
      6 CBP        41.4122   -3.7827   11.4377 C.2         1 MOL       0.2271
      7 OBV        42.2227   -4.0146   12.3482 O.2         1 MOL      -0.3908
      8 CBG        41.8634   -3.8575   10.0471 C.3         1 MOL       0.0928
      9 CBH        42.0822   -5.2924    9.4331 C.3         1 MOL       0.1121
     10 CBJ        42.0457   -6.4998   10.4014 C.3         1 MOL      -0.0314
     11 OBI        41.1312   -5.5466    8.4002 O.3         1 MOL      -0.3840
     12 NBF        42.9944   -2.9189    9.8102 N.4         1 MOL       0.2497
     13 CAX        44.3290   -3.1554   10.4233 C.3         1 MOL      -0.0062
     14 CAW        44.9205   -1.9222   11.1696 C.3         1 MOL       0.0906
     15 CAY        44.6764   -0.5615   10.4421 C.3         1 MOL       0.0089
     16 CAZ        45.2029    0.6157   11.1888 C.ar        1 MOL      -0.0406
     17 CBA        44.3960    1.3176   12.1126 C.ar        1 MOL      -0.0603
     18 CBB        44.8922    2.4475   12.7921 C.ar        1 MOL      -0.0686
     19 CBC        46.2123    2.8794   12.5666 C.ar        1 MOL      -0.0687
     20 CBD        47.0366    2.1772   11.6724 C.ar        1 MOL      -0.0686
     21 CBE        46.5318    1.0560   10.9872 C.ar        1 MOL      -0.0603
     22 NAV        46.3401   -2.1431   11.2765 N.am        1 MOL      -0.2761
     23 CAT        47.1388   -1.9019   12.3043 C.2         1 MOL       0.2026
     24 OAU        46.7040   -1.4519   13.3577 O.2         1 MOL      -0.3847
     25 CAP        48.5162   -1.9434   12.0938 C.ar        1 MOL       0.0397
     26 CAQ        49.3647   -0.8829   12.5020 C.ar        1 MOL      -0.0393
     27 CAO        49.0881   -3.0198   11.3747 C.ar        1 MOL      -0.0214
     28 CAN        50.4504   -3.0253   11.0225 C.ar        1 MOL       0.0754
     29 NAE        50.9733   -4.0553   10.3007 N.am        1 MOL      -0.1796
     30 CBT        51.3400   -5.2840   10.9475 C.3         1 MOL       0.0445
     31 SAB        50.7424   -4.0451    8.6263 S.o2        1 MOL       0.0593
     32 OAC        51.8711   -4.9286    7.9360 O.2         1 MOL      -0.1500
     33 OAD        49.3239   -4.6659    8.2639 O.2         1 MOL      -0.1500
     34 CAA        50.8686   -2.4004    7.8903 C.3         1 MOL       0.0790
     35 CAS        51.2650   -1.9384   11.4012 C.ar        1 MOL      -0.0214
     36 CAR        50.7369   -0.8703   12.1581 C.ar        1 MOL       0.0398
     37 CAL        51.5486    0.1693   12.5342 C.2         1 MOL       0.2041
     38 OAM        52.1731    0.0559   13.5918 O.2         1 MOL      -0.3845
     39 NBQ        51.7682    1.1749   11.6968 N.am        1 MOL      -0.2723
     40 CBR        52.6826    2.2667   11.8685 C.3         1 MOL       0.0723
     41 CBS        51.9135    3.6141   11.7956 C.3         1 MOL      -0.0320
     42 CAI        53.7745    2.1747   10.8456 C.ar        1 MOL      -0.0183
     43 CAH        53.4945    2.2961    9.4607 C.ar        1 MOL      -0.0582
     44 CAG        54.5211    2.1953    8.5037 C.ar        1 MOL      -0.0685
     45 CAF        55.8446    1.9596    8.9131 C.ar        1 MOL      -0.0687
     46 CAK        56.1421    1.8339   10.2807 C.ar        1 MOL      -0.0685
     47 CAJ        55.1162    1.9423   11.2385 C.ar        1 MOL      -0.0582
     48 H1         40.3416   -1.3752   15.9371 H           1 MOL       0.0233
     49 H2         40.9464   -3.0014   15.5873 H           1 MOL       0.0233
     50 H3         39.2054   -2.7088   15.7146 H           1 MOL       0.0233
     51 H4         39.3247   -1.2111   13.7086 H           1 MOL       0.0315
     52 H5         41.3328   -0.9954   12.3465 H           1 MOL       0.0233
     53 H6         42.2399   -2.0815   13.4232 H           1 MOL       0.0233
     54 H7         41.6939   -0.4877   14.0038 H           1 MOL       0.0233
     55 H8         38.5312   -3.1782   12.9172 H           1 MOL       0.0522
     56 H9         39.7920   -4.1693   13.6162 H           1 MOL       0.0522
     57 H10        39.5522   -3.3423   10.9845 H           1 MOL       0.1853
     58 H11        41.0741   -3.3899    9.4435 H           1 MOL       0.1125
     59 H12        43.0542   -5.3245    8.9383 H           1 MOL       0.0674
     60 H13        42.1965   -7.4278    9.8543 H           1 MOL       0.0258
     61 H14        41.0829   -6.5543   10.9093 H           1 MOL       0.0258
     62 H15        42.8302   -6.4166   11.1457 H           1 MOL       0.0258
     63 H16        40.2584   -5.2943    8.7686 H           1 MOL       0.2102
     64 H17        42.6669   -1.9835   10.0568 H           1 MOL       0.2037
     65 H18        43.1487   -2.9034    8.7905 H           1 MOL       0.2037
     66 H19        45.0035   -3.4556    9.6070 H           1 MOL       0.0839
     67 H20        44.3057   -3.9972   11.1302 H           1 MOL       0.0839
     68 H21        44.4540   -1.8734   12.1574 H           1 MOL       0.0632
     69 H22        43.6104   -0.4131   10.2966 H           1 MOL       0.0450
     70 H23        45.1214   -0.5950    9.4459 H           1 MOL       0.0450
     71 H24        43.4324    1.0197   12.2971 H           1 MOL       0.0557
     72 H25        44.2925    2.9583   13.4477 H           1 MOL       0.0599
     73 H26        46.5746    3.7045   13.0577 H           1 MOL       0.0559
     74 H27        48.0055    2.4795   11.5176 H           1 MOL       0.0599
     75 H28        47.1454    0.5536   10.3448 H           1 MOL       0.0557
     76 H29        46.7773   -2.3840   10.4444 H           1 MOL       0.1852
     77 H30        48.9714   -0.0886   13.0201 H           1 MOL       0.0576
     78 H31        48.5029   -3.8148   11.0886 H           1 MOL       0.0566
     79 H32        51.4713   -5.1565   12.0241 H           1 MOL       0.0517
     80 H33        52.2789   -5.6568   10.5423 H           1 MOL       0.0517
     81 H34        50.5676   -6.0368   10.7839 H           1 MOL       0.0517
     82 H35        50.7123   -2.4703    6.8130 H           1 MOL       0.0487
     83 H36        51.8582   -1.9860    8.0874 H           1 MOL       0.0487
     84 H37        50.1102   -1.7433    8.3204 H           1 MOL       0.0487
     85 H38        52.2444   -1.9203   11.1084 H           1 MOL       0.0566
     86 H39        51.3057    1.1329   10.8425 H           1 MOL       0.1875
     87 H40        53.1211    2.2365   12.8738 H           1 MOL       0.0716
     88 H41        52.6094    4.4530   11.8595 H           1 MOL       0.0274
     89 H42        51.2131    3.6862   12.6299 H           1 MOL       0.0274
     90 H43        51.3491    3.6963   10.8658 H           1 MOL       0.0274
     91 H44        52.5391    2.4603    9.1373 H           1 MOL       0.0557
     92 H45        54.3043    2.2936    7.5100 H           1 MOL       0.0599
     93 H46        56.5862    1.8768    8.2189 H           1 MOL       0.0559
     94 H47        57.1017    1.6630   10.5805 H           1 MOL       0.0599
     95 H48        55.3561    1.8438   12.2287 H           1 MOL       0.0557
@<TRIPOS>BOND
     1     1     2   1
     2     2     3   1
     3     2     4   1
     4     4     5   1
     5     5     6  am
     6     6     7   2
     7     6     8   1
     8     8     9   1
     9     8    12   1
    10     9    10   1
    11     9    11   1
    12    12    13   1
    13    13    14   1
    14    14    15   1
    15    14    22   1
    16    15    16   1
    17    16    17  ar
    18    16    21  ar
    19    17    18  ar
    20    18    19  ar
    21    19    20  ar
    22    20    21  ar
    23    22    23  am
    24    23    24   2
    25    23    25   1
    26    25    26  ar
    27    25    27  ar
    28    26    36  ar
    29    27    28  ar
    30    28    29   1
    31    28    35  ar
    32    29    30   1
    33    29    31  am
    34    31    32   2
    35    31    33   2
    36    31    34   1
    37    35    36  ar
    38    36    37   1
    39    37    38   2
    40    37    39  am
    41    39    40   1
    42    40    41   1
    43    40    42   1
    44    42    43  ar
    45    42    47  ar
    46    43    44  ar
    47    44    45  ar
    48    45    46  ar
    49    46    47  ar
    50     1    48   1
    51     1    49   1
    52     1    50   1
    53     2    51   1
    54     3    52   1
    55     3    53   1
    56     3    54   1
    57     4    55   1
    58     4    56   1
    59     5    57   1
    60     8    58   1
    61     9    59   1
    62    10    60   1
    63    10    61   1
    64    10    62   1
    65    11    63   1
    66    12    64   1
    67    12    65   1
    68    13    66   1
    69    13    67   1
    70    14    68   1
    71    15    69   1
    72    15    70   1
    73    17    71   1
    74    18    72   1
    75    19    73   1
    76    20    74   1
    77    21    75   1
    78    22    76   1
    79    26    77   1
    80    27    78   1
    81    30    79   1
    82    30    80   1
    83    30    81   1
    84    34    82   1
    85    34    83   1
    86    34    84   1
    87    35    85   1
    88    39    86   1
    89    40    87   1
    90    41    88   1
    91    41    89   1
    92    41    90   1
    93    43    91   1
    94    44    92   1
    95    45    93   1
    96    46    94   1
    97    47    95   1
@<TRIPOS>SUBSTRUCTURE
     1  MOL      1

