@<TRIPOS>MOLECULE
4gid_ligand_006
    95    97
SMALL
GAST_HUCK
****
This file was generated by PARSER (from files_GN.cpp)

@<TRIPOS>ATOM
      1 CBK        41.3830   -5.1177    7.7809 C.3         1 MOL      -0.0608
      2 CBL        42.3899   -4.3459    8.6806 C.3         1 MOL      -0.0265
      3 CBM        41.7095   -3.1221    9.3559 C.3         1 MOL      -0.0608
      4 CBN        43.0986   -5.2691    9.7108 C.3         1 MOL       0.0334
      5 NBO        42.1996   -5.9380   10.6053 N.am        1 MOL      -0.2820
      6 CBP        41.4104   -6.9751   10.3119 C.2         1 MOL       0.2271
      7 OBV        41.4088   -7.4608    9.1874 O.2         1 MOL      -0.3908
      8 CBG        40.5143   -7.5281   11.3370 C.3         1 MOL       0.0928
      9 CBH        40.8101   -9.0225   11.6953 C.3         1 MOL       0.1121
     10 CBJ        40.2168   -9.4376   13.0760 C.3         1 MOL      -0.0314
     11 OBI        40.3377   -9.9053   10.6797 O.3         1 MOL      -0.3840
     12 NBF        39.0731   -7.2772   11.0846 N.4         1 MOL       0.2497
     13 CAX        38.5066   -7.2076    9.7136 C.3         1 MOL      -0.0062
     14 CAW        36.9747   -6.8212    9.7182 C.3         1 MOL       0.0906
     15 CAY        36.5194   -6.0812    8.4133 C.3         1 MOL       0.0089
     16 CAZ        35.3188   -5.2029    8.5662 C.ar        1 MOL      -0.0406
     17 CBA        34.0894   -5.7391    9.0221 C.ar        1 MOL      -0.0603
     18 CBB        32.9845   -4.8993    9.2516 C.ar        1 MOL      -0.0686
     19 CBC        33.0812   -3.5182    9.0203 C.ar        1 MOL      -0.0687
     20 CBD        34.2896   -2.9760    8.5470 C.ar        1 MOL      -0.0686
     21 CBE        35.3979   -3.8121    8.3211 C.ar        1 MOL      -0.0603
     22 NAV        36.6202   -6.0629   10.8915 N.am        1 MOL      -0.2761
     23 CAT        36.2611   -6.5539   12.0809 C.2         1 MOL       0.2026
     24 OAU        36.2488   -7.7633   12.2459 O.2         1 MOL      -0.3847
     25 CAP        35.9342   -5.7185   13.1526 C.ar        1 MOL       0.0397
     26 CAQ        36.5026   -4.4320   13.2975 C.ar        1 MOL      -0.0393
     27 CAO        35.0333   -6.1567   14.1578 C.ar        1 MOL      -0.0214
     28 CAN        34.7138   -5.3492   15.2685 C.ar        1 MOL       0.0754
     29 NAE        33.8385   -5.8108   16.2030 N.am        1 MOL      -0.1796
     30 CBT        34.2978   -6.4718   17.3910 C.3         1 MOL       0.0445
     31 SAB        32.1893   -5.5507   15.9373 S.o2        1 MOL       0.0593
     32 OAC        31.3241   -6.3473   17.0089 O.2         1 MOL      -0.1500
     33 OAD        31.8753   -4.0057   16.1477 O.2         1 MOL      -0.1500
     34 CAA        31.5944   -6.0790   14.3182 C.3         1 MOL       0.0790
     35 CAS        35.2895   -4.0704   15.3838 C.ar        1 MOL      -0.0214
     36 CAR        36.1749   -3.5965   14.3883 C.ar        1 MOL       0.0398
     37 CAL        36.7063   -2.3359   14.4554 C.2         1 MOL       0.2041
     38 OAM        36.1449   -1.4407   13.8211 O.2         1 MOL      -0.3845
     39 NBQ        37.8075   -2.1275   15.1503 N.am        1 MOL      -0.2723
     40 CBR        38.4948   -0.8749   15.3086 C.3         1 MOL       0.0723
     41 CBS        39.9851   -1.0929   14.9337 C.3         1 MOL      -0.0320
     42 CAI        38.1765   -0.3716   16.6822 C.ar        1 MOL      -0.0183
     43 CAH        36.8199   -0.1346   17.0102 C.ar        1 MOL      -0.0582
     44 CAG        36.4369    0.3007   18.2889 C.ar        1 MOL      -0.0685
     45 CAF        37.4235    0.5494   19.2610 C.ar        1 MOL      -0.0687
     46 CAK        38.7805    0.3424   18.9572 C.ar        1 MOL      -0.0685
     47 CAJ        39.1557   -0.1261   17.6825 C.ar        1 MOL      -0.0582
     48 H1         41.0601   -4.4780    6.9583 H           1 MOL       0.0233
     49 H2         40.4946   -5.4110    8.3504 H           1 MOL       0.0233
     50 H3         41.8445   -6.0119    7.3663 H           1 MOL       0.0233
     51 H4         43.1645   -3.9493    8.0233 H           1 MOL       0.0315
     52 H5         42.4567   -2.5161    9.8806 H           1 MOL       0.0233
     53 H6         40.9545   -3.4413   10.0740 H           1 MOL       0.0233
     54 H7         41.2308   -2.4900    8.6058 H           1 MOL       0.0233
     55 H8         43.7649   -4.6648   10.3248 H           1 MOL       0.0522
     56 H9         43.7361   -5.9914    9.1815 H           1 MOL       0.0522
     57 H10        42.1262   -5.5713   11.4939 H           1 MOL       0.1853
     58 H11        40.7217   -6.9638   12.2541 H           1 MOL       0.1125
     59 H12        41.8983   -9.1634   11.7666 H           1 MOL       0.0674
     60 H13        40.5642  -10.4408   13.3444 H           1 MOL       0.0258
     61 H14        39.1239   -9.4581   13.0291 H           1 MOL       0.0258
     62 H15        40.5354   -8.7462   13.8573 H           1 MOL       0.0258
     63 H16        39.9908  -10.6902   11.1633 H           1 MOL       0.2102
     64 H17        38.8519   -6.3831   11.5344 H           1 MOL       0.2037
     65 H18        38.5544   -8.0085   11.5836 H           1 MOL       0.2037
     66 H19        38.6156   -8.1568    9.2120 H           1 MOL       0.0839
     67 H20        39.0767   -6.4733    9.1547 H           1 MOL       0.0839
     68 H21        36.3991   -7.7602    9.7344 H           1 MOL       0.0632
     69 H22        36.3031   -6.8255    7.6414 H           1 MOL       0.0450
     70 H23        37.3521   -5.4825    8.0434 H           1 MOL       0.0450
     71 H24        34.0009   -6.7357    9.2225 H           1 MOL       0.0557
     72 H25        32.1087   -5.2973    9.6053 H           1 MOL       0.0599
     73 H26        32.2836   -2.9098    9.1974 H           1 MOL       0.0559
     74 H27        34.3679   -1.9710    8.3767 H           1 MOL       0.0599
     75 H28        36.2687   -3.3908    7.9818 H           1 MOL       0.0557
     76 H29        36.6553   -5.0981   10.7978 H           1 MOL       0.1852
     77 H30        37.1877   -4.0992   12.6148 H           1 MOL       0.0576
     78 H31        34.5892   -7.0746   14.0838 H           1 MOL       0.0566
     79 H32        35.3898   -6.5529   17.4271 H           1 MOL       0.0517
     80 H33        33.8878   -7.4849   17.4323 H           1 MOL       0.0517
     81 H34        33.9708   -5.9214   18.2769 H           1 MOL       0.0517
     82 H35        30.5268   -5.8834   14.2336 H           1 MOL       0.0487
     83 H36        31.7768   -7.1479   14.1956 H           1 MOL       0.0487
     84 H37        32.1208   -5.5320   13.5355 H           1 MOL       0.0487
     85 H38        35.0419   -3.4747   16.1824 H           1 MOL       0.0566
     86 H39        38.1928   -2.8955   15.6122 H           1 MOL       0.1875
     87 H40        38.1222   -0.1223   14.6094 H           1 MOL       0.0716
     88 H41        40.5464   -0.1612   15.0496 H           1 MOL       0.0274
     89 H42        40.0617   -1.4044   13.8875 H           1 MOL       0.0274
     90 H43        40.4413   -1.8633   15.5581 H           1 MOL       0.0274
     91 H44        36.0855   -0.2931   16.3126 H           1 MOL       0.0557
     92 H45        35.4545    0.4426   18.5103 H           1 MOL       0.0599
     93 H46        37.1521    0.8799   20.1894 H           1 MOL       0.0559
     94 H47        39.4923    0.5259   19.6612 H           1 MOL       0.0599
     95 H48        40.1452   -0.2813   17.4892 H           1 MOL       0.0557
@<TRIPOS>BOND
     1     1     2   1
     2     2     3   1
     3     2     4   1
     4     4     5   1
     5     5     6  am
     6     6     7   2
     7     6     8   1
     8     8     9   1
     9     8    12   1
    10     9    10   1
    11     9    11   1
    12    12    13   1
    13    13    14   1
    14    14    15   1
    15    14    22   1
    16    15    16   1
    17    16    17  ar
    18    16    21  ar
    19    17    18  ar
    20    18    19  ar
    21    19    20  ar
    22    20    21  ar
    23    22    23  am
    24    23    24   2
    25    23    25   1
    26    25    26  ar
    27    25    27  ar
    28    26    36  ar
    29    27    28  ar
    30    28    29   1
    31    28    35  ar
    32    29    30   1
    33    29    31  am
    34    31    32   2
    35    31    33   2
    36    31    34   1
    37    35    36  ar
    38    36    37   1
    39    37    38   2
    40    37    39  am
    41    39    40   1
    42    40    41   1
    43    40    42   1
    44    42    43  ar
    45    42    47  ar
    46    43    44  ar
    47    44    45  ar
    48    45    46  ar
    49    46    47  ar
    50     1    48   1
    51     1    49   1
    52     1    50   1
    53     2    51   1
    54     3    52   1
    55     3    53   1
    56     3    54   1
    57     4    55   1
    58     4    56   1
    59     5    57   1
    60     8    58   1
    61     9    59   1
    62    10    60   1
    63    10    61   1
    64    10    62   1
    65    11    63   1
    66    12    64   1
    67    12    65   1
    68    13    66   1
    69    13    67   1
    70    14    68   1
    71    15    69   1
    72    15    70   1
    73    17    71   1
    74    18    72   1
    75    19    73   1
    76    20    74   1
    77    21    75   1
    78    22    76   1
    79    26    77   1
    80    27    78   1
    81    30    79   1
    82    30    80   1
    83    30    81   1
    84    34    82   1
    85    34    83   1
    86    34    84   1
    87    35    85   1
    88    39    86   1
    89    40    87   1
    90    41    88   1
    91    41    89   1
    92    41    90   1
    93    43    91   1
    94    44    92   1
    95    45    93   1
    96    46    94   1
    97    47    95   1
@<TRIPOS>SUBSTRUCTURE
     1  MOL      1

