@<TRIPOS>MOLECULE
4gid_ligand_061
    95    97
SMALL
GAST_HUCK
****
This file was generated by PARSER (from files_GN.cpp)

@<TRIPOS>ATOM
      1 CBK        30.4013  -12.9392   16.8629 C.3         1 MOL      -0.0608
      2 CBL        31.8587  -12.4748   17.1295 C.3         1 MOL      -0.0265
      3 CBM        32.6668  -12.3967   15.8054 C.3         1 MOL      -0.0608
      4 CBN        31.9204  -11.1468   17.9526 C.3         1 MOL       0.0334
      5 NBO        31.2704  -10.0432   17.3085 N.am        1 MOL      -0.2820
      6 CBP        30.2733   -9.3043   17.7818 C.2         1 MOL       0.2271
      7 OBV        29.7963   -9.5297   18.8925 O.2         1 MOL      -0.3908
      8 CBG        29.7108   -8.2201   16.9955 C.3         1 MOL       0.0928
      9 CBH        29.1136   -8.7152   15.6383 C.3         1 MOL       0.1121
     10 CBJ        27.9933   -9.7797   15.8031 C.3         1 MOL      -0.0314
     11 OBI        28.5436   -7.6114   14.9204 O.3         1 MOL      -0.3840
     12 NBF        30.7373   -7.1572   16.7545 N.4         1 MOL       0.2497
     13 CAX        31.0569   -6.2319   17.8877 C.3         1 MOL      -0.0062
     14 CAW        32.4958   -6.4291   18.4821 C.3         1 MOL       0.0906
     15 CAY        32.7930   -5.6698   19.8252 C.3         1 MOL       0.0089
     16 CAZ        31.7201   -5.6995   20.8530 C.ar        1 MOL      -0.0406
     17 CBA        31.3335   -4.5215   21.5431 C.ar        1 MOL      -0.0603
     18 CBB        30.2950   -4.5443   22.4931 C.ar        1 MOL      -0.0686
     19 CBC        29.6266   -5.7478   22.7728 C.ar        1 MOL      -0.0687
     20 CBD        30.0085   -6.9318   22.1136 C.ar        1 MOL      -0.0686
     21 CBE        31.0550   -6.9089   21.1686 C.ar        1 MOL      -0.0603
     22 NAV        33.5072   -6.1304   17.5021 N.am        1 MOL      -0.2761
     23 CAT        33.6043   -5.0363   16.7338 C.2         1 MOL       0.2026
     24 OAU        32.6972   -4.1970   16.7176 O.2         1 MOL      -0.3847
     25 CAP        34.6754   -4.8642   15.8768 C.ar        1 MOL       0.0397
     26 CAQ        34.7683   -5.6450   14.7003 C.ar        1 MOL      -0.0393
     27 CAO        35.6450   -3.8608   16.1150 C.ar        1 MOL      -0.0214
     28 CAN        36.7043   -3.6395   15.2022 C.ar        1 MOL       0.0754
     29 NAE        37.6924   -2.7301   15.5040 N.am        1 MOL      -0.1796
     30 CBT        38.4475   -2.8035   16.7295 C.3         1 MOL       0.0445
     31 SAB        37.8911   -1.3641   14.5308 S.o2        1 MOL       0.0593
     32 OAC        39.4412   -1.0107   14.4017 O.2         1 MOL      -0.1500
     33 OAD        37.4563   -1.6893   13.0361 O.2         1 MOL      -0.1500
     34 CAA        36.9970    0.0982   15.0742 C.3         1 MOL       0.0790
     35 CAS        36.7476   -4.4033   14.0197 C.ar        1 MOL      -0.0214
     36 CAR        35.7825   -5.4042   13.7470 C.ar        1 MOL       0.0398
     37 CAL        35.8119   -6.1245   12.5750 C.2         1 MOL       0.2041
     38 OAM        35.9773   -7.3467   12.6355 O.2         1 MOL      -0.3845
     39 NBQ        35.5365   -5.5339   11.4246 N.am        1 MOL      -0.2723
     40 CBR        35.3478   -6.1759   10.1576 C.3         1 MOL       0.0723
     41 CBS        36.6999   -6.6241    9.5393 C.3         1 MOL      -0.0320
     42 CAI        34.5607   -5.2644    9.2650 C.ar        1 MOL      -0.0183
     43 CAH        33.1764   -5.4925    9.0525 C.ar        1 MOL      -0.0582
     44 CAG        32.4210   -4.6585    8.2096 C.ar        1 MOL      -0.0685
     45 CAF        33.0364   -3.5723    7.5692 C.ar        1 MOL      -0.0687
     46 CAK        34.4020   -3.3042    7.7917 C.ar        1 MOL      -0.0685
     47 CAJ        35.1538   -4.1390    8.6413 C.ar        1 MOL      -0.0582
     48 H1         30.3963  -13.9601   16.4701 H           1 MOL       0.0233
     49 H2         29.9194  -12.2891   16.1281 H           1 MOL       0.0233
     50 H3         29.8151  -12.9231   17.7841 H           1 MOL       0.0233
     51 H4         32.3276  -13.2551   17.7465 H           1 MOL       0.0315
     52 H5         33.7112  -12.1644   16.0124 H           1 MOL       0.0233
     53 H6         32.2587  -11.6228   15.1509 H           1 MOL       0.0233
     54 H7         32.6283  -13.3530   15.2787 H           1 MOL       0.0233
     55 H8         32.9691  -10.8773   18.1000 H           1 MOL       0.0522
     56 H9         31.5041  -11.3466   18.9456 H           1 MOL       0.0522
     57 H10        31.6057   -9.8125   16.4275 H           1 MOL       0.1853
     58 H11        28.8729   -7.7580   17.5256 H           1 MOL       0.1125
     59 H12        29.9101   -9.1406   15.0061 H           1 MOL       0.0674
     60 H13        27.6951  -10.1652   14.8231 H           1 MOL       0.0258
     61 H14        27.1211   -9.3378   16.2885 H           1 MOL       0.0258
     62 H15        28.3389  -10.6187   16.4116 H           1 MOL       0.0258
     63 H16        28.4421   -7.9237   13.9924 H           1 MOL       0.2102
     64 H17        30.4070   -6.5666   15.9807 H           1 MOL       0.2037
     65 H18        31.6125   -7.6020   16.4485 H           1 MOL       0.2037
     66 H19        30.3155   -6.3348   18.6884 H           1 MOL       0.0839
     67 H20        30.9757   -5.1980   17.5172 H           1 MOL       0.0839
     68 H21        32.5800   -7.5015   18.6993 H           1 MOL       0.0632
     69 H22        33.0315   -4.6335   19.5944 H           1 MOL       0.0450
     70 H23        33.6969   -6.0961   20.2552 H           1 MOL       0.0450
     71 H24        31.8037   -3.6325   21.3618 H           1 MOL       0.0557
     72 H25        30.0233   -3.6829   22.9834 H           1 MOL       0.0599
     73 H26        28.8616   -5.7649   23.4572 H           1 MOL       0.0559
     74 H27        29.5251   -7.8089   22.3228 H           1 MOL       0.0599
     75 H28        31.3204   -7.7809   20.7062 H           1 MOL       0.0557
     76 H29        34.2354   -6.7719   17.4293 H           1 MOL       0.1852
     77 H30        34.0551   -6.3582   14.5176 H           1 MOL       0.0576
     78 H31        35.5980   -3.3035   16.9767 H           1 MOL       0.0566
     79 H32        38.2488   -3.7124   17.2933 H           1 MOL       0.0517
     80 H33        38.2060   -1.9475   17.3623 H           1 MOL       0.0517
     81 H34        39.5167   -2.7848   16.5044 H           1 MOL       0.0517
     82 H35        37.1193    0.8963   14.3412 H           1 MOL       0.0487
     83 H36        37.3848    0.4317   16.0357 H           1 MOL       0.0487
     84 H37        35.9386   -0.1419   15.1711 H           1 MOL       0.0487
     85 H38        37.5020   -4.2437   13.3509 H           1 MOL       0.0566
     86 H39        35.2877   -4.5993   11.4825 H           1 MOL       0.1875
     87 H40        34.7642   -7.0941   10.3143 H           1 MOL       0.0716
     88 H41        36.5352   -7.0719    8.5590 H           1 MOL       0.0274
     89 H42        37.1674   -7.3697   10.1816 H           1 MOL       0.0274
     90 H43        37.3814   -5.7821    9.4363 H           1 MOL       0.0274
     91 H44        32.7055   -6.2678    9.5195 H           1 MOL       0.0557
     92 H45        31.4265   -4.8428    8.0700 H           1 MOL       0.0599
     93 H46        32.4929   -2.9754    6.9452 H           1 MOL       0.0559
     94 H47        34.8440   -2.5035    7.3386 H           1 MOL       0.0599
     95 H48        36.1426   -3.9207    8.7987 H           1 MOL       0.0557
@<TRIPOS>BOND
     1     1     2   1
     2     2     3   1
     3     2     4   1
     4     4     5   1
     5     5     6  am
     6     6     7   2
     7     6     8   1
     8     8     9   1
     9     8    12   1
    10     9    10   1
    11     9    11   1
    12    12    13   1
    13    13    14   1
    14    14    15   1
    15    14    22   1
    16    15    16   1
    17    16    17  ar
    18    16    21  ar
    19    17    18  ar
    20    18    19  ar
    21    19    20  ar
    22    20    21  ar
    23    22    23  am
    24    23    24   2
    25    23    25   1
    26    25    26  ar
    27    25    27  ar
    28    26    36  ar
    29    27    28  ar
    30    28    29   1
    31    28    35  ar
    32    29    30   1
    33    29    31  am
    34    31    32   2
    35    31    33   2
    36    31    34   1
    37    35    36  ar
    38    36    37   1
    39    37    38   2
    40    37    39  am
    41    39    40   1
    42    40    41   1
    43    40    42   1
    44    42    43  ar
    45    42    47  ar
    46    43    44  ar
    47    44    45  ar
    48    45    46  ar
    49    46    47  ar
    50     1    48   1
    51     1    49   1
    52     1    50   1
    53     2    51   1
    54     3    52   1
    55     3    53   1
    56     3    54   1
    57     4    55   1
    58     4    56   1
    59     5    57   1
    60     8    58   1
    61     9    59   1
    62    10    60   1
    63    10    61   1
    64    10    62   1
    65    11    63   1
    66    12    64   1
    67    12    65   1
    68    13    66   1
    69    13    67   1
    70    14    68   1
    71    15    69   1
    72    15    70   1
    73    17    71   1
    74    18    72   1
    75    19    73   1
    76    20    74   1
    77    21    75   1
    78    22    76   1
    79    26    77   1
    80    27    78   1
    81    30    79   1
    82    30    80   1
    83    30    81   1
    84    34    82   1
    85    34    83   1
    86    34    84   1
    87    35    85   1
    88    39    86   1
    89    40    87   1
    90    41    88   1
    91    41    89   1
    92    41    90   1
    93    43    91   1
    94    44    92   1
    95    45    93   1
    96    46    94   1
    97    47    95   1
@<TRIPOS>SUBSTRUCTURE
     1  MOL      1

