@<TRIPOS>MOLECULE
4gid_ligand_059
    95    97
SMALL
GAST_HUCK
****
This file was generated by PARSER (from files_GN.cpp)

@<TRIPOS>ATOM
      1 CBK        41.6126   -8.2234   11.3700 C.3         1 MOL      -0.0608
      2 CBL        40.6366   -8.3619   10.1695 C.3         1 MOL      -0.0265
      3 CBM        39.1607   -8.1776   10.6249 C.3         1 MOL      -0.0608
      4 CBN        41.0172   -7.4269    8.9792 C.3         1 MOL       0.0334
      5 NBO        40.9355   -6.0384    9.3023 N.am        1 MOL      -0.2820
      6 CBP        41.8988   -5.2663    9.8057 C.2         1 MOL       0.2271
      7 OBV        43.0394   -5.7177    9.9241 O.2         1 MOL      -0.3908
      8 CBG        41.5771   -3.8980   10.2294 C.3         1 MOL       0.0928
      9 CBH        42.7949   -2.9062   10.3306 C.3         1 MOL       0.1121
     10 CBJ        43.9504   -3.3224   11.2817 C.3         1 MOL      -0.0314
     11 OBI        43.3405   -2.6882    9.0233 O.3         1 MOL      -0.3840
     12 NBF        40.6128   -3.9612   11.3847 N.4         1 MOL       0.2497
     13 CAX        40.7466   -3.2047   12.6530 C.3         1 MOL      -0.0062
     14 CAW        39.3849   -2.9042   13.3692 C.3         1 MOL       0.0906
     15 CAY        39.6837   -2.5384   14.8664 C.3         1 MOL       0.0089
     16 CAZ        38.6097   -1.8267   15.6172 C.ar        1 MOL      -0.0406
     17 CBA        38.1282   -2.3238   16.8510 C.ar        1 MOL      -0.0603
     18 CBB        37.1255   -1.6425   17.5650 C.ar        1 MOL      -0.0686
     19 CBC        36.5878   -0.4441   17.0582 C.ar        1 MOL      -0.0687
     20 CBD        37.0680    0.0795   15.8474 C.ar        1 MOL      -0.0686
     21 CBE        38.0856   -0.5955   15.1433 C.ar        1 MOL      -0.0603
     22 NAV        38.4367   -3.9803   13.1478 N.am        1 MOL      -0.2761
     23 CAT        37.1277   -3.9662   13.3505 C.2         1 MOL       0.2026
     24 OAU        36.5903   -3.1271   14.0780 O.2         1 MOL      -0.3847
     25 CAP        36.3015   -4.8763   12.7120 C.ar        1 MOL       0.0397
     26 CAQ        35.5651   -5.8319   13.4389 C.ar        1 MOL      -0.0393
     27 CAO        36.0619   -4.7445   11.3238 C.ar        1 MOL      -0.0214
     28 CAN        35.0883   -5.5288   10.6677 C.ar        1 MOL       0.0754
     29 NAE        34.7097   -5.2515    9.3643 N.am        1 MOL      -0.1796
     30 CBT        33.3253   -5.0247    9.0282 C.3         1 MOL       0.0445
     31 SAB        35.8479   -4.8633    8.1724 S.o2        1 MOL       0.0593
     32 OAC        36.1099   -3.2951    8.1844 O.2         1 MOL      -0.1500
     33 OAD        37.2265   -5.5991    8.4749 O.2         1 MOL      -0.1500
     34 CAA        35.4330   -5.3412    6.4856 C.3         1 MOL       0.0790
     35 CAS        34.4308   -6.5346   11.4212 C.ar        1 MOL      -0.0214
     36 CAR        34.6463   -6.7170   12.8141 C.ar        1 MOL       0.0398
     37 CAL        33.9794   -7.7182   13.5457 C.2         1 MOL       0.2041
     38 OAM        33.5337   -8.6933   12.9459 O.2         1 MOL      -0.3845
     39 NBQ        33.8264   -7.6323   14.8662 N.am        1 MOL      -0.2723
     40 CBR        33.2957   -8.5336   15.8541 C.3         1 MOL       0.0723
     41 CBS        32.7376   -9.9119   15.3993 C.3         1 MOL      -0.0320
     42 CAI        32.3860   -7.7477   16.7476 C.ar        1 MOL      -0.0183
     43 CAH        30.9730   -7.8112   16.6701 C.ar        1 MOL      -0.0582
     44 CAG        30.1636   -7.0496   17.5325 C.ar        1 MOL      -0.0685
     45 CAF        30.7502   -6.1873   18.4747 C.ar        1 MOL      -0.0687
     46 CAK        32.1506   -6.0858   18.5488 C.ar        1 MOL      -0.0685
     47 CAJ        32.9563   -6.8573   17.6948 C.ar        1 MOL      -0.0582
     48 H1         41.3951   -8.9818   12.1260 H           1 MOL       0.0233
     49 H2         41.5211   -7.2385   11.8316 H           1 MOL       0.0233
     50 H3         42.6431   -8.3616   11.0357 H           1 MOL       0.0233
     51 H4         40.7300   -9.3916    9.8034 H           1 MOL       0.0315
     52 H5         38.4826   -8.3260    9.7831 H           1 MOL       0.0233
     53 H6         38.9983   -7.1776   11.0309 H           1 MOL       0.0233
     54 H7         38.9093   -8.9070   11.3966 H           1 MOL       0.0233
     55 H8         40.3167   -7.6018    8.1613 H           1 MOL       0.0522
     56 H9         42.0124   -7.6877    8.6031 H           1 MOL       0.0522
     57 H10        40.0589   -5.6329    9.2243 H           1 MOL       0.1853
     58 H11        40.9718   -3.4873    9.4135 H           1 MOL       0.1125
     59 H12        42.4139   -1.9404   10.6698 H           1 MOL       0.0674
     60 H13        44.5758   -2.4502   11.4949 H           1 MOL       0.0258
     61 H14        44.5882   -4.0853   10.8267 H           1 MOL       0.0258
     62 H15        43.5750   -3.7160   12.2268 H           1 MOL       0.0258
     63 H16        42.7774   -1.9761    8.6423 H           1 MOL       0.2102
     64 H17        40.5761   -4.9437   11.6756 H           1 MOL       0.2037
     65 H18        39.6938   -3.7400   10.9997 H           1 MOL       0.2037
     66 H19        41.2524   -2.2540   12.4753 H           1 MOL       0.0839
     67 H20        41.3751   -3.8088   13.3169 H           1 MOL       0.0839
     68 H21        38.9708   -2.0312   12.8635 H           1 MOL       0.0632
     69 H22        40.5588   -1.8816   14.9125 H           1 MOL       0.0450
     70 H23        39.9587   -3.4601   15.3837 H           1 MOL       0.0450
     71 H24        38.4969   -3.1958   17.2351 H           1 MOL       0.0557
     72 H25        36.7769   -2.0228   18.4471 H           1 MOL       0.0599
     73 H26        35.8606    0.0497   17.5748 H           1 MOL       0.0559
     74 H27        36.6829    0.9537   15.4771 H           1 MOL       0.0599
     75 H28        38.4273   -0.1899   14.2649 H           1 MOL       0.0557
     76 H29        38.7693   -4.7344   12.6243 H           1 MOL       0.1852
     77 H30        35.7405   -5.8948   14.4443 H           1 MOL       0.0576
     78 H31        36.5414   -4.0031   10.8074 H           1 MOL       0.0566
     79 H32        32.6449   -5.1656    9.8738 H           1 MOL       0.0517
     80 H33        33.0222   -5.7122    8.2371 H           1 MOL       0.0517
     81 H34        33.1880   -3.9988    8.6727 H           1 MOL       0.0517
     82 H35        36.2250   -5.0244    5.8059 H           1 MOL       0.0487
     83 H36        34.4968   -4.8705    6.1837 H           1 MOL       0.0487
     84 H37        35.3307   -6.4228    6.4301 H           1 MOL       0.0487
     85 H38        33.7526   -7.1311   10.9386 H           1 MOL       0.0566
     86 H39        34.1567   -6.8108   15.2554 H           1 MOL       0.1875
     87 H40        34.1666   -8.8103   16.4558 H           1 MOL       0.0716
     88 H41        32.4026  -10.4887   16.2650 H           1 MOL       0.0274
     89 H42        33.5189  -10.4846   14.8932 H           1 MOL       0.0274
     90 H43        31.8961   -9.7975   14.7154 H           1 MOL       0.0274
     91 H44        30.5104   -8.4121   15.9864 H           1 MOL       0.0557
     92 H45        29.1435   -7.1146   17.4693 H           1 MOL       0.0599
     93 H46        30.1635   -5.6262   19.0939 H           1 MOL       0.0559
     94 H47        32.5811   -5.4498   19.2249 H           1 MOL       0.0599
     95 H48        33.9737   -6.7633   17.7682 H           1 MOL       0.0557
@<TRIPOS>BOND
     1     1     2   1
     2     2     3   1
     3     2     4   1
     4     4     5   1
     5     5     6  am
     6     6     7   2
     7     6     8   1
     8     8     9   1
     9     8    12   1
    10     9    10   1
    11     9    11   1
    12    12    13   1
    13    13    14   1
    14    14    15   1
    15    14    22   1
    16    15    16   1
    17    16    17  ar
    18    16    21  ar
    19    17    18  ar
    20    18    19  ar
    21    19    20  ar
    22    20    21  ar
    23    22    23  am
    24    23    24   2
    25    23    25   1
    26    25    26  ar
    27    25    27  ar
    28    26    36  ar
    29    27    28  ar
    30    28    29   1
    31    28    35  ar
    32    29    30   1
    33    29    31  am
    34    31    32   2
    35    31    33   2
    36    31    34   1
    37    35    36  ar
    38    36    37   1
    39    37    38   2
    40    37    39  am
    41    39    40   1
    42    40    41   1
    43    40    42   1
    44    42    43  ar
    45    42    47  ar
    46    43    44  ar
    47    44    45  ar
    48    45    46  ar
    49    46    47  ar
    50     1    48   1
    51     1    49   1
    52     1    50   1
    53     2    51   1
    54     3    52   1
    55     3    53   1
    56     3    54   1
    57     4    55   1
    58     4    56   1
    59     5    57   1
    60     8    58   1
    61     9    59   1
    62    10    60   1
    63    10    61   1
    64    10    62   1
    65    11    63   1
    66    12    64   1
    67    12    65   1
    68    13    66   1
    69    13    67   1
    70    14    68   1
    71    15    69   1
    72    15    70   1
    73    17    71   1
    74    18    72   1
    75    19    73   1
    76    20    74   1
    77    21    75   1
    78    22    76   1
    79    26    77   1
    80    27    78   1
    81    30    79   1
    82    30    80   1
    83    30    81   1
    84    34    82   1
    85    34    83   1
    86    34    84   1
    87    35    85   1
    88    39    86   1
    89    40    87   1
    90    41    88   1
    91    41    89   1
    92    41    90   1
    93    43    91   1
    94    44    92   1
    95    45    93   1
    96    46    94   1
    97    47    95   1
@<TRIPOS>SUBSTRUCTURE
     1  MOL      1

