@<TRIPOS>MOLECULE
4gid_ligand_088
    95    97
SMALL
GAST_HUCK
****
This file was generated by PARSER (from files_GN.cpp)

@<TRIPOS>ATOM
      1 CBK        42.3222   -6.6513    9.6287 C.3         1 MOL      -0.0608
      2 CBL        41.2835   -5.6605    9.0313 C.3         1 MOL      -0.0265
      3 CBM        41.9460   -4.2736    8.7900 C.3         1 MOL      -0.0608
      4 CBN        40.6189   -6.2411    7.7379 C.3         1 MOL       0.0334
      5 NBO        39.1991   -6.0293    7.7043 N.am        1 MOL      -0.2820
      6 CBP        38.4314   -5.7078    6.6607 C.2         1 MOL       0.2271
      7 OBV        38.9473   -5.5792    5.5564 O.2         1 MOL      -0.3908
      8 CBG        36.9756   -5.5860    6.8328 C.3         1 MOL       0.0928
      9 CBH        36.1718   -5.2168    5.5324 C.3         1 MOL       0.1121
     10 CBJ        34.7860   -4.5683    5.7869 C.3         1 MOL      -0.0314
     11 OBI        36.8782   -4.3086    4.6851 O.3         1 MOL      -0.3840
     12 NBF        36.6778   -4.6218    7.9357 N.4         1 MOL       0.2497
     13 CAX        35.7472   -4.9937    9.0376 C.3         1 MOL      -0.0062
     14 CAW        36.4010   -5.9060   10.1305 C.3         1 MOL       0.0906
     15 CAY        36.1775   -7.4449    9.9402 C.3         1 MOL       0.0089
     16 CAZ        37.4309   -8.2160   10.1797 C.ar        1 MOL      -0.0406
     17 CBA        37.8276   -8.5561   11.4952 C.ar        1 MOL      -0.0603
     18 CBB        39.0374   -9.2320   11.7291 C.ar        1 MOL      -0.0686
     19 CBC        39.8815   -9.5541   10.6523 C.ar        1 MOL      -0.0687
     20 CBD        39.5187   -9.1991    9.3455 C.ar        1 MOL      -0.0686
     21 CBE        38.2943   -8.5465    9.1091 C.ar        1 MOL      -0.0603
     22 NAV        35.9231   -5.5233   11.4305 N.am        1 MOL      -0.2761
     23 CAT        36.6383   -5.4733   12.5466 C.2         1 MOL       0.2026
     24 OAU        37.8123   -5.8370   12.5864 O.2         1 MOL      -0.3847
     25 CAP        36.0941   -4.9286   13.6820 C.ar        1 MOL       0.0397
     26 CAQ        36.4771   -3.6296   14.0748 C.ar        1 MOL      -0.0393
     27 CAO        35.1492   -5.6350   14.4604 C.ar        1 MOL      -0.0214
     28 CAN        34.6484   -5.0737   15.6528 C.ar        1 MOL       0.0754
     29 NAE        33.7734   -5.7833   16.4189 N.am        1 MOL      -0.1796
     30 CBT        34.2275   -6.6544   17.4622 C.3         1 MOL       0.0445
     31 SAB        32.1228   -5.6342   16.0931 S.o2        1 MOL       0.0593
     32 OAC        31.2836   -6.4410   17.1799 O.2         1 MOL      -0.1500
     33 OAD        31.6811   -4.1234   16.3112 O.2         1 MOL      -0.1500
     34 CAA        31.5944   -6.2342   14.4781 C.3         1 MOL       0.0790
     35 CAS        35.0618   -3.7819   16.0444 C.ar        1 MOL      -0.0214
     36 CAR        35.9495   -3.0277   15.2375 C.ar        1 MOL       0.0398
     37 CAL        36.3303   -1.7420   15.5776 C.2         1 MOL       0.2041
     38 OAM        36.1699   -0.8382   14.7576 O.2         1 MOL      -0.3845
     39 NBQ        36.9272   -1.5328   16.7381 N.am        1 MOL      -0.2723
     40 CBR        37.5007   -0.3012   17.2150 C.3         1 MOL       0.0723
     41 CBS        39.0225   -0.5987   17.3477 C.3         1 MOL      -0.0320
     42 CAI        36.8119    0.1709   18.4655 C.ar        1 MOL      -0.0183
     43 CAH        37.4662    1.0102   19.4036 C.ar        1 MOL      -0.0582
     44 CAG        36.8109    1.4669   20.5610 C.ar        1 MOL      -0.0685
     45 CAF        35.4671    1.1236   20.7907 C.ar        1 MOL      -0.0687
     46 CAK        34.7772    0.3374   19.8547 C.ar        1 MOL      -0.0685
     47 CAJ        35.4417   -0.1219   18.7040 C.ar        1 MOL      -0.0582
     48 H1         42.7592   -6.2492   10.5456 H           1 MOL       0.0233
     49 H2         43.1249   -6.8427    8.9136 H           1 MOL       0.0233
     50 H3         41.8400   -7.5987    9.8767 H           1 MOL       0.0233
     51 H4         40.5072   -5.5259    9.7921 H           1 MOL       0.0315
     52 H5         41.2353   -3.5696    8.3577 H           1 MOL       0.0233
     53 H6         42.7939   -4.3662    8.1079 H           1 MOL       0.0233
     54 H7         42.3042   -3.8514    9.7327 H           1 MOL       0.0233
     55 H8         40.7516   -7.3240    7.7125 H           1 MOL       0.0522
     56 H9         41.1158   -5.8358    6.8500 H           1 MOL       0.0522
     57 H10        38.7354   -6.1994    8.5372 H           1 MOL       0.1853
     58 H11        36.6317   -6.5756    7.1217 H           1 MOL       0.1125
     59 H12        36.0110   -6.1301    4.9506 H           1 MOL       0.0674
     60 H13        34.2583   -4.4346    4.8422 H           1 MOL       0.0258
     61 H14        34.8952   -3.5833    6.2477 H           1 MOL       0.0258
     62 H15        34.1827   -5.1961    6.4403 H           1 MOL       0.0258
     63 H16        37.4497   -4.8695    4.1172 H           1 MOL       0.2102
     64 H17        36.3315   -3.7679    7.4941 H           1 MOL       0.2037
     65 H18        37.5546   -4.3759    8.3860 H           1 MOL       0.2037
     66 H19        34.8330   -5.4490    8.6546 H           1 MOL       0.0839
     67 H20        35.4586   -4.0418    9.4959 H           1 MOL       0.0839
     68 H21        37.4733   -5.6994   10.0820 H           1 MOL       0.0632
     69 H22        35.8080   -7.6497    8.9352 H           1 MOL       0.0450
     70 H23        35.3953   -7.8101   10.6146 H           1 MOL       0.0450
     71 H24        37.2348   -8.3117   12.2897 H           1 MOL       0.0557
     72 H25        39.3095   -9.4855   12.6817 H           1 MOL       0.0599
     73 H26        40.7591  -10.0461   10.8247 H           1 MOL       0.0559
     74 H27        40.1387   -9.4205    8.5637 H           1 MOL       0.0599
     75 H28        38.0467   -8.2972    8.1493 H           1 MOL       0.0557
     76 H29        35.0174   -5.1715   11.4804 H           1 MOL       0.1852
     77 H30        37.1560   -3.1132   13.5037 H           1 MOL       0.0576
     78 H31        34.8439   -6.5741   14.1797 H           1 MOL       0.0566
     79 H32        35.3171   -6.6718   17.5489 H           1 MOL       0.0517
     80 H33        33.8881   -7.6731   17.2653 H           1 MOL       0.0517
     81 H34        33.8189   -6.3232   18.4184 H           1 MOL       0.0517
     82 H35        30.5151   -6.1112   14.3831 H           1 MOL       0.0487
     83 H36        31.8504   -7.2902   14.3815 H           1 MOL       0.0487
     84 H37        32.0947   -5.6650   13.6948 H           1 MOL       0.0487
     85 H38        34.6868   -3.3801   16.9079 H           1 MOL       0.0566
     86 H39        37.0516   -2.3102   17.3083 H           1 MOL       0.1875
     87 H40        37.3942    0.5033   16.4777 H           1 MOL       0.0716
     88 H41        39.5831    0.3148   17.5497 H           1 MOL       0.0274
     89 H42        39.4103   -1.0165   16.4121 H           1 MOL       0.0274
     90 H43        39.2052   -1.3162   18.1520 H           1 MOL       0.0274
     91 H44        38.4314    1.3024   19.2567 H           1 MOL       0.0557
     92 H45        37.3071    2.0621   21.2289 H           1 MOL       0.0599
     93 H46        34.9908    1.4606   21.6280 H           1 MOL       0.0559
     94 H47        33.7945    0.1056   20.0069 H           1 MOL       0.0599
     95 H48        34.9006   -0.6758   18.0362 H           1 MOL       0.0557
@<TRIPOS>BOND
     1     1     2   1
     2     2     3   1
     3     2     4   1
     4     4     5   1
     5     5     6  am
     6     6     7   2
     7     6     8   1
     8     8     9   1
     9     8    12   1
    10     9    10   1
    11     9    11   1
    12    12    13   1
    13    13    14   1
    14    14    15   1
    15    14    22   1
    16    15    16   1
    17    16    17  ar
    18    16    21  ar
    19    17    18  ar
    20    18    19  ar
    21    19    20  ar
    22    20    21  ar
    23    22    23  am
    24    23    24   2
    25    23    25   1
    26    25    26  ar
    27    25    27  ar
    28    26    36  ar
    29    27    28  ar
    30    28    29   1
    31    28    35  ar
    32    29    30   1
    33    29    31  am
    34    31    32   2
    35    31    33   2
    36    31    34   1
    37    35    36  ar
    38    36    37   1
    39    37    38   2
    40    37    39  am
    41    39    40   1
    42    40    41   1
    43    40    42   1
    44    42    43  ar
    45    42    47  ar
    46    43    44  ar
    47    44    45  ar
    48    45    46  ar
    49    46    47  ar
    50     1    48   1
    51     1    49   1
    52     1    50   1
    53     2    51   1
    54     3    52   1
    55     3    53   1
    56     3    54   1
    57     4    55   1
    58     4    56   1
    59     5    57   1
    60     8    58   1
    61     9    59   1
    62    10    60   1
    63    10    61   1
    64    10    62   1
    65    11    63   1
    66    12    64   1
    67    12    65   1
    68    13    66   1
    69    13    67   1
    70    14    68   1
    71    15    69   1
    72    15    70   1
    73    17    71   1
    74    18    72   1
    75    19    73   1
    76    20    74   1
    77    21    75   1
    78    22    76   1
    79    26    77   1
    80    27    78   1
    81    30    79   1
    82    30    80   1
    83    30    81   1
    84    34    82   1
    85    34    83   1
    86    34    84   1
    87    35    85   1
    88    39    86   1
    89    40    87   1
    90    41    88   1
    91    41    89   1
    92    41    90   1
    93    43    91   1
    94    44    92   1
    95    45    93   1
    96    46    94   1
    97    47    95   1
@<TRIPOS>SUBSTRUCTURE
     1  MOL      1

