@<TRIPOS>MOLECULE
4gid_ligand_014
    95    97
SMALL
GAST_HUCK
****
This file was generated by PARSER (from files_GN.cpp)

@<TRIPOS>ATOM
      1 CBK        44.7001    2.2061   12.3307 C.3         1 MOL      -0.0608
      2 CBL        44.6192    1.1593   11.1805 C.3         1 MOL      -0.0265
      3 CBM        45.9764    1.0722   10.4203 C.3         1 MOL      -0.0608
      4 CBN        44.1664   -0.2257   11.7346 C.3         1 MOL       0.0334
      5 NBO        44.0454   -1.1931   10.6821 N.am        1 MOL      -0.2820
      6 CBP        44.4875   -2.4497   10.7201 C.2         1 MOL       0.2271
      7 OBV        45.0688   -2.8926   11.7088 O.2         1 MOL      -0.3908
      8 CBG        44.4042   -3.3132    9.5371 C.3         1 MOL       0.0928
      9 CBH        45.6776   -3.2013    8.6394 C.3         1 MOL       0.1121
     10 CBJ        47.0154   -3.0278    9.4154 C.3         1 MOL      -0.0314
     11 OBI        45.7927   -4.4079    7.8674 O.3         1 MOL      -0.3840
     12 NBF        43.2007   -3.0885    8.6964 N.4         1 MOL       0.2497
     13 CAX        41.9029   -3.6605    9.1178 C.3         1 MOL      -0.0062
     14 CAW        41.9217   -4.8251   10.1500 C.3         1 MOL       0.0906
     15 CAY        42.1862   -6.2382    9.5026 C.3         1 MOL       0.0089
     16 CAZ        41.1915   -7.3200    9.8039 C.ar        1 MOL      -0.0406
     17 CBA        41.4119   -8.2213   10.8763 C.ar        1 MOL      -0.0603
     18 CBB        40.4588   -9.2038   11.2073 C.ar        1 MOL      -0.0686
     19 CBC        39.2816   -9.3268   10.4527 C.ar        1 MOL      -0.0687
     20 CBD        39.0526   -8.4555    9.3723 C.ar        1 MOL      -0.0686
     21 CBE        40.0046   -7.4700    9.0418 C.ar        1 MOL      -0.0603
     22 NAV        40.6422   -4.7674   10.8167 N.am        1 MOL      -0.2761
     23 CAT        40.4098   -4.5768   12.1147 C.2         1 MOL       0.2026
     24 OAU        41.3520   -4.4478   12.8939 O.2         1 MOL      -0.3847
     25 CAP        39.0997   -4.5126   12.6127 C.ar        1 MOL       0.0397
     26 CAQ        38.8108   -3.8934   13.8565 C.ar        1 MOL      -0.0393
     27 CAO        37.9978   -5.0475   11.8981 C.ar        1 MOL      -0.0214
     28 CAN        36.6673   -4.9244   12.3573 C.ar        1 MOL       0.0754
     29 NAE        35.6462   -5.4365   11.5926 N.am        1 MOL      -0.1796
     30 CBT        35.4030   -4.9504   10.2608 C.3         1 MOL       0.0445
     31 SAB        34.6682   -6.6800   12.2053 S.o2        1 MOL       0.0593
     32 OAC        35.5460   -7.5624   13.1977 O.2         1 MOL      -0.1500
     33 OAD        33.4450   -6.0781   13.0289 O.2         1 MOL      -0.1500
     34 CAA        34.0603   -7.8165   10.9446 C.3         1 MOL       0.0790
     35 CAS        36.4377   -4.3085   13.6096 C.ar        1 MOL      -0.0214
     36 CAR        37.4996   -3.7928   14.3932 C.ar        1 MOL       0.0398
     37 CAL        37.2558   -3.2161   15.6526 C.2         1 MOL       0.2041
     38 OAM        36.1417   -2.7831   15.9226 O.2         1 MOL      -0.3845
     39 NBQ        38.1980   -3.2180   16.5899 N.am        1 MOL      -0.2723
     40 CBR        38.1133   -2.7462   17.9478 C.3         1 MOL       0.0723
     41 CBS        39.3722   -1.8911   18.2468 C.3         1 MOL      -0.0320
     42 CAI        38.0009   -3.9169   18.8682 C.ar        1 MOL      -0.0183
     43 CAH        36.9772   -3.9743   19.8477 C.ar        1 MOL      -0.0582
     44 CAG        36.8583   -5.0904   20.6953 C.ar        1 MOL      -0.0685
     45 CAF        37.7571   -6.1639   20.5824 C.ar        1 MOL      -0.0687
     46 CAK        38.7779   -6.1208   19.6189 C.ar        1 MOL      -0.0685
     47 CAJ        38.8986   -5.0082   18.7683 C.ar        1 MOL      -0.0582
     48 H1         44.9187    3.1989   11.9185 H           1 MOL       0.0233
     49 H2         45.4815    1.9372   13.0491 H           1 MOL       0.0233
     50 H3         43.7379    2.2598   12.8615 H           1 MOL       0.0233
     51 H4         43.8561    1.5041   10.4715 H           1 MOL       0.0315
     52 H5         45.8742    0.4311    9.5359 H           1 MOL       0.0233
     53 H6         46.7581    0.6568   11.0656 H           1 MOL       0.0233
     54 H7         46.2849    2.0660   10.0846 H           1 MOL       0.0233
     55 H8         43.1722   -0.1311   12.1879 H           1 MOL       0.0522
     56 H9         44.8769   -0.5458   12.5089 H           1 MOL       0.0522
     57 H10        43.5429   -0.9044    9.8956 H           1 MOL       0.1853
     58 H11        44.3259   -4.3536    9.8913 H           1 MOL       0.1125
     59 H12        45.5304   -2.3406    7.9676 H           1 MOL       0.0674
     60 H13        47.8443   -3.1459    8.7010 H           1 MOL       0.0258
     61 H14        47.1015   -3.7954   10.1948 H           1 MOL       0.0258
     62 H15        47.0650   -2.0296    9.8564 H           1 MOL       0.0258
     63 H16        44.9755   -4.4483    7.3192 H           1 MOL       0.2102
     64 H17        43.4054   -3.4546    7.7557 H           1 MOL       0.2037
     65 H18        43.0475   -2.0769    8.5933 H           1 MOL       0.2037
     66 H19        41.4151   -4.0263    8.1977 H           1 MOL       0.0839
     67 H20        41.2734   -2.8390    9.4912 H           1 MOL       0.0839
     68 H21        42.7383   -4.6238   10.8550 H           1 MOL       0.0632
     69 H22        43.1602   -6.6012    9.8444 H           1 MOL       0.0450
     70 H23        42.2813   -6.1324    8.4173 H           1 MOL       0.0450
     71 H24        42.2610   -8.1461   11.4408 H           1 MOL       0.0557
     72 H25        40.6249   -9.8330   11.9985 H           1 MOL       0.0599
     73 H26        38.5867  -10.0309   10.7020 H           1 MOL       0.0559
     74 H27        38.1933   -8.5431    8.8204 H           1 MOL       0.0599
     75 H28        39.8156   -6.8458    8.2557 H           1 MOL       0.0557
     76 H29        39.8708   -4.7933   10.2310 H           1 MOL       0.1852
     77 H30        39.5838   -3.4765   14.3842 H           1 MOL       0.0576
     78 H31        38.1473   -5.5501   11.0191 H           1 MOL       0.0566
     79 H32        36.0304   -4.0894   10.0066 H           1 MOL       0.0517
     80 H33        34.3569   -4.6482   10.1448 H           1 MOL       0.0517
     81 H34        35.6201   -5.7482    9.5414 H           1 MOL       0.0517
     82 H35        33.5260   -8.6389   11.4237 H           1 MOL       0.0487
     83 H36        34.9008   -8.2150   10.3689 H           1 MOL       0.0487
     84 H37        33.3846   -7.2846   10.2790 H           1 MOL       0.0487
     85 H38        35.4711   -4.2467   13.9530 H           1 MOL       0.0566
     86 H39        39.0352   -3.6610   16.3621 H           1 MOL       0.1875
     87 H40        37.2528   -2.0812   18.0684 H           1 MOL       0.0716
     88 H41        39.3627   -1.5548   19.2856 H           1 MOL       0.0274
     89 H42        39.3920   -1.0181   17.5986 H           1 MOL       0.0274
     90 H43        40.2897   -2.4728   18.0761 H           1 MOL       0.0274
     91 H44        36.3145   -3.2021   19.9529 H           1 MOL       0.0557
     92 H45        36.1099   -5.1212   21.3961 H           1 MOL       0.0599
     93 H46        37.6728   -6.9699   21.1988 H           1 MOL       0.0559
     94 H47        39.4292   -6.9054   19.5240 H           1 MOL       0.0599
     95 H48        39.6433   -5.0042   18.0664 H           1 MOL       0.0557
@<TRIPOS>BOND
     1     1     2   1
     2     2     3   1
     3     2     4   1
     4     4     5   1
     5     5     6  am
     6     6     7   2
     7     6     8   1
     8     8     9   1
     9     8    12   1
    10     9    10   1
    11     9    11   1
    12    12    13   1
    13    13    14   1
    14    14    15   1
    15    14    22   1
    16    15    16   1
    17    16    17  ar
    18    16    21  ar
    19    17    18  ar
    20    18    19  ar
    21    19    20  ar
    22    20    21  ar
    23    22    23  am
    24    23    24   2
    25    23    25   1
    26    25    26  ar
    27    25    27  ar
    28    26    36  ar
    29    27    28  ar
    30    28    29   1
    31    28    35  ar
    32    29    30   1
    33    29    31  am
    34    31    32   2
    35    31    33   2
    36    31    34   1
    37    35    36  ar
    38    36    37   1
    39    37    38   2
    40    37    39  am
    41    39    40   1
    42    40    41   1
    43    40    42   1
    44    42    43  ar
    45    42    47  ar
    46    43    44  ar
    47    44    45  ar
    48    45    46  ar
    49    46    47  ar
    50     1    48   1
    51     1    49   1
    52     1    50   1
    53     2    51   1
    54     3    52   1
    55     3    53   1
    56     3    54   1
    57     4    55   1
    58     4    56   1
    59     5    57   1
    60     8    58   1
    61     9    59   1
    62    10    60   1
    63    10    61   1
    64    10    62   1
    65    11    63   1
    66    12    64   1
    67    12    65   1
    68    13    66   1
    69    13    67   1
    70    14    68   1
    71    15    69   1
    72    15    70   1
    73    17    71   1
    74    18    72   1
    75    19    73   1
    76    20    74   1
    77    21    75   1
    78    22    76   1
    79    26    77   1
    80    27    78   1
    81    30    79   1
    82    30    80   1
    83    30    81   1
    84    34    82   1
    85    34    83   1
    86    34    84   1
    87    35    85   1
    88    39    86   1
    89    40    87   1
    90    41    88   1
    91    41    89   1
    92    41    90   1
    93    43    91   1
    94    44    92   1
    95    45    93   1
    96    46    94   1
    97    47    95   1
@<TRIPOS>SUBSTRUCTURE
     1  MOL      1

