@<TRIPOS>MOLECULE
4gid_ligand_092
    95    97
SMALL
GAST_HUCK
****
This file was generated by PARSER (from files_GN.cpp)

@<TRIPOS>ATOM
      1 CBK        50.6353   -3.9884    9.7564 C.3         1 MOL      -0.0608
      2 CBL        49.8027   -2.6798    9.8717 C.3         1 MOL      -0.0265
      3 CBM        48.4475   -2.8268    9.1266 C.3         1 MOL      -0.0608
      4 CBN        49.6127   -2.2192   11.3583 C.3         1 MOL       0.0334
      5 NBO        50.5791   -1.2366   11.7442 N.am        1 MOL      -0.2820
      6 CBP        51.6515   -1.4046   12.5106 C.2         1 MOL       0.2271
      7 OBV        51.8636   -2.4831   13.0514 O.2         1 MOL      -0.3908
      8 CBG        52.5569   -0.2712   12.7018 C.3         1 MOL       0.0928
      9 CBH        52.9517    0.3982   11.3264 C.3         1 MOL       0.1121
     10 CBJ        52.4494    1.8583   11.1897 C.3         1 MOL      -0.0314
     11 OBI        54.3628    0.3702   11.1002 O.3         1 MOL      -0.3840
     12 NBF        53.7528   -0.6593   13.5150 N.4         1 MOL       0.2497
     13 CAX        54.5270    0.4276   14.1742 C.3         1 MOL      -0.0062
     14 CAW        54.1606    0.6369   15.6731 C.3         1 MOL       0.0906
     15 CAY        54.7786   -0.4591   16.5913 C.3         1 MOL       0.0089
     16 CAZ        54.6861   -0.1107   18.0357 C.ar        1 MOL      -0.0406
     17 CBA        53.5693   -0.5047   18.8083 C.ar        1 MOL      -0.0603
     18 CBB        53.4776   -0.1514   20.1687 C.ar        1 MOL      -0.0686
     19 CBC        54.5015    0.5999   20.7703 C.ar        1 MOL      -0.0687
     20 CBD        55.6150    1.0034   20.0131 C.ar        1 MOL      -0.0686
     21 CBE        55.7058    0.6546   18.6540 C.ar        1 MOL      -0.0603
     22 NAV        52.7350    0.6566   15.8485 N.am        1 MOL      -0.2761
     23 CAT        51.9349    1.7072   15.7296 C.2         1 MOL       0.2026
     24 OAU        52.3588    2.8115   15.4102 O.2         1 MOL      -0.3847
     25 CAP        50.5686    1.5216   15.8120 C.ar        1 MOL       0.0397
     26 CAQ        49.7381    1.9264   14.7452 C.ar        1 MOL      -0.0393
     27 CAO        49.9887    0.9023   16.9412 C.ar        1 MOL      -0.0214
     28 CAN        48.5905    0.7193   17.0251 C.ar        1 MOL       0.0754
     29 NAE        48.0217    0.2123   18.1640 N.am        1 MOL      -0.1796
     30 CBT        48.2516    0.8073   19.4507 C.3         1 MOL       0.0445
     31 SAB        47.0934   -1.2013   18.0691 S.o2        1 MOL       0.0593
     32 OAC        46.1439   -1.3024   19.3449 O.2         1 MOL      -0.1500
     33 OAD        46.0646   -1.1259   16.8619 O.2         1 MOL      -0.1500
     34 CAA        48.0650   -2.7148   17.9649 C.3         1 MOL       0.0790
     35 CAS        47.7872    1.1211   15.9378 C.ar        1 MOL      -0.0214
     36 CAR        48.3376    1.6961   14.7638 C.ar        1 MOL       0.0398
     37 CAL        47.5390    2.0112   13.6580 C.2         1 MOL       0.2041
     38 OAM        47.8770    2.9192   12.9059 O.2         1 MOL      -0.3845
     39 NBQ        46.4669    1.2813   13.3649 N.am        1 MOL      -0.2723
     40 CBR        45.5724    1.4029   12.2492 C.3         1 MOL       0.0723
     41 CBS        44.1856    1.8010   12.8165 C.3         1 MOL      -0.0320
     42 CAI        45.4759    0.1432   11.4398 C.ar        1 MOL      -0.0183
     43 CAH        44.8223    0.1830   10.1809 C.ar        1 MOL      -0.0582
     44 CAG        44.6850   -0.9743    9.3928 C.ar        1 MOL      -0.0685
     45 CAF        45.2015   -2.1996    9.8457 C.ar        1 MOL      -0.0687
     46 CAK        45.8657   -2.2631   11.0813 C.ar        1 MOL      -0.0685
     47 CAJ        45.9911   -1.1069   11.8743 C.ar        1 MOL      -0.0582
     48 H1         50.8042   -4.2423    8.7070 H           1 MOL       0.0233
     49 H2         50.1169   -4.8219   10.2363 H           1 MOL       0.0233
     50 H3         51.6103   -3.8658   10.2288 H           1 MOL       0.0233
     51 H4         50.3585   -1.9016    9.3357 H           1 MOL       0.0315
     52 H5         47.9048   -1.8786    9.1478 H           1 MOL       0.0233
     53 H6         47.8290   -3.5973    9.5923 H           1 MOL       0.0233
     54 H7         48.6135   -3.0931    8.0795 H           1 MOL       0.0233
     55 H8         49.6187   -3.0720   12.0448 H           1 MOL       0.0522
     56 H9         48.6406   -1.7349   11.4789 H           1 MOL       0.0522
     57 H10        50.4843   -0.3664   11.3247 H           1 MOL       0.1853
     58 H11        51.9826    0.4397   13.3029 H           1 MOL       0.1125
     59 H12        52.5124   -0.1546   10.4898 H           1 MOL       0.0674
     60 H13        52.6797    2.2425   10.1929 H           1 MOL       0.0258
     61 H14        52.9262    2.5044   11.9278 H           1 MOL       0.0258
     62 H15        51.3666    1.9007   11.3315 H           1 MOL       0.0258
     63 H16        54.4821    0.6167   10.1582 H           1 MOL       0.2102
     64 H17        54.3902   -1.1798   12.9062 H           1 MOL       0.2037
     65 H18        53.4462   -1.3042   14.2461 H           1 MOL       0.2037
     66 H19        54.4072    1.3752   13.6441 H           1 MOL       0.0839
     67 H20        55.5870    0.1716   14.1069 H           1 MOL       0.0839
     68 H21        54.5868    1.6009   15.9765 H           1 MOL       0.0632
     69 H22        55.8287   -0.6043   16.3256 H           1 MOL       0.0450
     70 H23        54.2808   -1.4160   16.4109 H           1 MOL       0.0450
     71 H24        52.8122   -1.0480   18.3848 H           1 MOL       0.0557
     72 H25        52.6642   -0.4384   20.7157 H           1 MOL       0.0599
     73 H26        54.4353    0.8560   21.7572 H           1 MOL       0.0559
     74 H27        56.3573    1.5553   20.4484 H           1 MOL       0.0599
     75 H28        56.5185    0.9639   18.1148 H           1 MOL       0.0557
     76 H29        52.3044   -0.2007   16.0058 H           1 MOL       0.1852
     77 H30        50.1678    2.3524   13.9187 H           1 MOL       0.0576
     78 H31        50.5792    0.6066   17.7237 H           1 MOL       0.0566
     79 H32        48.8740    1.7031   19.3944 H           1 MOL       0.0517
     80 H33        48.7469    0.0923   20.1107 H           1 MOL       0.0517
     81 H34        47.2993    1.0990   19.8980 H           1 MOL       0.0517
     82 H35        47.3978   -3.5710   17.8686 H           1 MOL       0.0487
     83 H36        48.6628   -2.8207   18.8695 H           1 MOL       0.0487
     84 H37        48.7242   -2.6681   17.0984 H           1 MOL       0.0487
     85 H38        46.7719    1.0250   16.0249 H           1 MOL       0.0566
     86 H39        46.2655    0.5432   13.9570 H           1 MOL       0.1875
     87 H40        45.9059    2.2076   11.5860 H           1 MOL       0.0716
     88 H41        43.4728    1.9733   12.0083 H           1 MOL       0.0274
     89 H42        44.2669    2.7197   13.4011 H           1 MOL       0.0274
     90 H43        43.7943    1.0126   13.4648 H           1 MOL       0.0274
     91 H44        44.4337    1.0608    9.8298 H           1 MOL       0.0557
     92 H45        44.2045   -0.9254    8.4915 H           1 MOL       0.0599
     93 H46        45.0926   -3.0446    9.2787 H           1 MOL       0.0559
     94 H47        46.2475   -3.1560   11.4066 H           1 MOL       0.0599
     95 H48        46.4558   -1.1963   12.7800 H           1 MOL       0.0557
@<TRIPOS>BOND
     1     1     2   1
     2     2     3   1
     3     2     4   1
     4     4     5   1
     5     5     6  am
     6     6     7   2
     7     6     8   1
     8     8     9   1
     9     8    12   1
    10     9    10   1
    11     9    11   1
    12    12    13   1
    13    13    14   1
    14    14    15   1
    15    14    22   1
    16    15    16   1
    17    16    17  ar
    18    16    21  ar
    19    17    18  ar
    20    18    19  ar
    21    19    20  ar
    22    20    21  ar
    23    22    23  am
    24    23    24   2
    25    23    25   1
    26    25    26  ar
    27    25    27  ar
    28    26    36  ar
    29    27    28  ar
    30    28    29   1
    31    28    35  ar
    32    29    30   1
    33    29    31  am
    34    31    32   2
    35    31    33   2
    36    31    34   1
    37    35    36  ar
    38    36    37   1
    39    37    38   2
    40    37    39  am
    41    39    40   1
    42    40    41   1
    43    40    42   1
    44    42    43  ar
    45    42    47  ar
    46    43    44  ar
    47    44    45  ar
    48    45    46  ar
    49    46    47  ar
    50     1    48   1
    51     1    49   1
    52     1    50   1
    53     2    51   1
    54     3    52   1
    55     3    53   1
    56     3    54   1
    57     4    55   1
    58     4    56   1
    59     5    57   1
    60     8    58   1
    61     9    59   1
    62    10    60   1
    63    10    61   1
    64    10    62   1
    65    11    63   1
    66    12    64   1
    67    12    65   1
    68    13    66   1
    69    13    67   1
    70    14    68   1
    71    15    69   1
    72    15    70   1
    73    17    71   1
    74    18    72   1
    75    19    73   1
    76    20    74   1
    77    21    75   1
    78    22    76   1
    79    26    77   1
    80    27    78   1
    81    30    79   1
    82    30    80   1
    83    30    81   1
    84    34    82   1
    85    34    83   1
    86    34    84   1
    87    35    85   1
    88    39    86   1
    89    40    87   1
    90    41    88   1
    91    41    89   1
    92    41    90   1
    93    43    91   1
    94    44    92   1
    95    45    93   1
    96    46    94   1
    97    47    95   1
@<TRIPOS>SUBSTRUCTURE
     1  MOL      1

