@<TRIPOS>MOLECULE
4gid_ligand_007
    95    97
SMALL
GAST_HUCK
****
This file was generated by PARSER (from files_GN.cpp)

@<TRIPOS>ATOM
      1 CBK        42.3494   -7.8231    9.1113 C.3         1 MOL      -0.0608
      2 CBL        42.3353   -6.3122    8.7540 C.3         1 MOL      -0.0265
      3 CBM        41.2225   -5.9859    7.7182 C.3         1 MOL      -0.0608
      4 CBN        42.2242   -5.4363   10.0369 C.3         1 MOL       0.0334
      5 NBO        40.9133   -5.4432   10.6169 N.am        1 MOL      -0.2820
      6 CBP        40.4761   -6.2588   11.5667 C.2         1 MOL       0.2271
      7 OBV        41.0896   -7.2871   11.8376 O.2         1 MOL      -0.3908
      8 CBG        39.1955   -6.0030   12.2246 C.3         1 MOL       0.0928
      9 CBH        38.0642   -6.9615   11.7378 C.3         1 MOL       0.1121
     10 CBJ        37.7994   -6.9371   10.2087 C.3         1 MOL      -0.0314
     11 OBI        38.3783   -8.2927   12.1582 O.3         1 MOL      -0.3840
     12 NBF        38.7374   -4.5787   12.1984 N.4         1 MOL       0.2497
     13 CAX        39.6991   -3.5765   12.7348 C.3         1 MOL      -0.0062
     14 CAW        39.0714   -2.2952   13.3537 C.3         1 MOL       0.0906
     15 CAY        40.1387   -1.3386   13.9811 C.3         1 MOL       0.0089
     16 CAZ        41.2839   -0.9539   13.0999 C.ar        1 MOL      -0.0406
     17 CBA        42.2884   -1.8970   12.7698 C.ar        1 MOL      -0.0603
     18 CBB        43.3738   -1.5460   11.9474 C.ar        1 MOL      -0.0686
     19 CBC        43.4892   -0.2326   11.4603 C.ar        1 MOL      -0.0687
     20 CBD        42.5110    0.7228   11.7869 C.ar        1 MOL      -0.0686
     21 CBE        41.4196    0.3658   12.6022 C.ar        1 MOL      -0.0603
     22 NAV        38.1515   -2.6912   14.3878 N.am        1 MOL      -0.2761
     23 CAT        36.9549   -2.1783   14.6446 C.2         1 MOL       0.2026
     24 OAU        36.4899   -1.2309   14.0218 O.2         1 MOL      -0.3847
     25 CAP        36.1808   -2.7652   15.6242 C.ar        1 MOL       0.0397
     26 CAQ        36.1254   -2.2291   16.9318 C.ar        1 MOL      -0.0393
     27 CAO        35.4377   -3.9262   15.3223 C.ar        1 MOL      -0.0214
     28 CAN        34.6234   -4.5351   16.3019 C.ar        1 MOL       0.0754
     29 NAE        33.9026   -5.6518   16.0075 N.am        1 MOL      -0.1796
     30 CBT        34.4902   -6.9565   16.0423 C.3         1 MOL       0.0445
     31 SAB        32.3421   -5.4323   15.3948 S.o2        1 MOL       0.0593
     32 OAC        31.6657   -4.2269   16.1813 O.2         1 MOL      -0.1500
     33 OAD        32.4456   -5.0176   13.8639 O.2         1 MOL      -0.1500
     34 CAA        31.2264   -6.8400   15.5811 C.3         1 MOL       0.0790
     35 CAS        34.5530   -3.9709   17.5912 C.ar        1 MOL      -0.0214
     36 CAR        35.3112   -2.8259   17.9259 C.ar        1 MOL       0.0398
     37 CAL        35.2836   -2.3329   19.2205 C.2         1 MOL       0.2041
     38 OAM        34.2167   -1.9476   19.6850 O.2         1 MOL      -0.3845
     39 NBQ        36.3836   -2.4010   19.9607 N.am        1 MOL      -0.2723
     40 CBR        36.5483   -2.0261   21.3388 C.3         1 MOL       0.0723
     41 CBS        35.7630   -2.9855   22.2790 C.3         1 MOL      -0.0320
     42 CAI        36.3571   -0.5484   21.5234 C.ar        1 MOL      -0.0183
     43 CAH        35.5359    0.0204   22.5307 C.ar        1 MOL      -0.0582
     44 CAG        35.4162    1.4162   22.6675 C.ar        1 MOL      -0.0685
     45 CAF        36.1070    2.2721   21.7939 C.ar        1 MOL      -0.0687
     46 CAK        36.9256    1.7331   20.7873 C.ar        1 MOL      -0.0685
     47 CAJ        37.0528    0.3374   20.6604 C.ar        1 MOL      -0.0582
     48 H1         42.4923   -8.4264    8.2104 H           1 MOL       0.0233
     49 H2         41.4073   -8.1203    9.5929 H           1 MOL       0.0233
     50 H3         43.1807   -8.0362    9.7920 H           1 MOL       0.0233
     51 H4         43.3009   -6.0776    8.2874 H           1 MOL       0.0315
     52 H5         41.2360   -4.9178    7.4781 H           1 MOL       0.0233
     53 H6         40.2327   -6.2492    8.1121 H           1 MOL       0.0233
     54 H7         41.3913   -6.5440    6.7928 H           1 MOL       0.0233
     55 H8         42.4636   -4.3946    9.7879 H           1 MOL       0.0522
     56 H9         42.9862   -5.7633   10.7604 H           1 MOL       0.0522
     57 H10        40.3041   -4.7599   10.3055 H           1 MOL       0.1853
     58 H11        39.3429   -6.2187   13.2892 H           1 MOL       0.1125
     59 H12        37.1351   -6.6742   12.2438 H           1 MOL       0.0674
     60 H13        36.9307   -7.5589    9.9754 H           1 MOL       0.0258
     61 H14        38.6672   -7.3192    9.6637 H           1 MOL       0.0258
     62 H15        37.5905   -5.9200    9.8716 H           1 MOL       0.0258
     63 H16        37.7457   -8.8742   11.6846 H           1 MOL       0.2102
     64 H17        37.8779   -4.5342   12.7555 H           1 MOL       0.2037
     65 H18        38.5059   -4.3227   11.2308 H           1 MOL       0.2037
     66 H19        40.3344   -3.2829   11.8955 H           1 MOL       0.0839
     67 H20        40.3340   -4.0423   13.4973 H           1 MOL       0.0839
     68 H21        38.5495   -1.7599   12.5535 H           1 MOL       0.0632
     69 H22        40.5431   -1.8002   14.8864 H           1 MOL       0.0450
     70 H23        39.6211   -0.4338   14.3114 H           1 MOL       0.0450
     71 H24        42.2416   -2.8503   13.1326 H           1 MOL       0.0557
     72 H25        44.0817   -2.2441   11.7074 H           1 MOL       0.0599
     73 H26        44.2861    0.0274   10.8733 H           1 MOL       0.0559
     74 H27        42.5893    1.6722   11.4185 H           1 MOL       0.0599
     75 H28        40.7224    1.0797   12.8255 H           1 MOL       0.0557
     76 H29        38.4481   -3.4109   14.9697 H           1 MOL       0.1852
     77 H30        36.6700   -1.3899   17.1580 H           1 MOL       0.0576
     78 H31        35.4726   -4.3306   14.3810 H           1 MOL       0.0566
     79 H32        35.5250   -6.9377   16.3890 H           1 MOL       0.0517
     80 H33        34.4770   -7.3977   15.0451 H           1 MOL       0.0517
     81 H34        33.9223   -7.5956   16.7187 H           1 MOL       0.0517
     82 H35        30.2365   -6.5728   15.2067 H           1 MOL       0.0487
     83 H36        31.1522   -7.1111   16.6353 H           1 MOL       0.0487
     84 H37        31.6078   -7.6901   15.0129 H           1 MOL       0.0487
     85 H38        33.9597   -4.4177   18.2987 H           1 MOL       0.0566
     86 H39        37.1685   -2.7688   19.5251 H           1 MOL       0.1875
     87 H40        37.6014   -2.2159   21.5662 H           1 MOL       0.0716
     88 H41        36.0229   -2.7882   23.3208 H           1 MOL       0.0274
     89 H42        36.0189   -4.0227   22.0550 H           1 MOL       0.0274
     90 H43        34.6854   -2.8668   22.1621 H           1 MOL       0.0274
     91 H44        35.0183   -0.5667   23.1845 H           1 MOL       0.0557
     92 H45        34.8295    1.8121   23.4044 H           1 MOL       0.0599
     93 H46        36.0147    3.2856   21.8918 H           1 MOL       0.0559
     94 H47        37.4295    2.3547   20.1496 H           1 MOL       0.0599
     95 H48        37.6614   -0.0310   19.9249 H           1 MOL       0.0557
@<TRIPOS>BOND
     1     1     2   1
     2     2     3   1
     3     2     4   1
     4     4     5   1
     5     5     6  am
     6     6     7   2
     7     6     8   1
     8     8     9   1
     9     8    12   1
    10     9    10   1
    11     9    11   1
    12    12    13   1
    13    13    14   1
    14    14    15   1
    15    14    22   1
    16    15    16   1
    17    16    17  ar
    18    16    21  ar
    19    17    18  ar
    20    18    19  ar
    21    19    20  ar
    22    20    21  ar
    23    22    23  am
    24    23    24   2
    25    23    25   1
    26    25    26  ar
    27    25    27  ar
    28    26    36  ar
    29    27    28  ar
    30    28    29   1
    31    28    35  ar
    32    29    30   1
    33    29    31  am
    34    31    32   2
    35    31    33   2
    36    31    34   1
    37    35    36  ar
    38    36    37   1
    39    37    38   2
    40    37    39  am
    41    39    40   1
    42    40    41   1
    43    40    42   1
    44    42    43  ar
    45    42    47  ar
    46    43    44  ar
    47    44    45  ar
    48    45    46  ar
    49    46    47  ar
    50     1    48   1
    51     1    49   1
    52     1    50   1
    53     2    51   1
    54     3    52   1
    55     3    53   1
    56     3    54   1
    57     4    55   1
    58     4    56   1
    59     5    57   1
    60     8    58   1
    61     9    59   1
    62    10    60   1
    63    10    61   1
    64    10    62   1
    65    11    63   1
    66    12    64   1
    67    12    65   1
    68    13    66   1
    69    13    67   1
    70    14    68   1
    71    15    69   1
    72    15    70   1
    73    17    71   1
    74    18    72   1
    75    19    73   1
    76    20    74   1
    77    21    75   1
    78    22    76   1
    79    26    77   1
    80    27    78   1
    81    30    79   1
    82    30    80   1
    83    30    81   1
    84    34    82   1
    85    34    83   1
    86    34    84   1
    87    35    85   1
    88    39    86   1
    89    40    87   1
    90    41    88   1
    91    41    89   1
    92    41    90   1
    93    43    91   1
    94    44    92   1
    95    45    93   1
    96    46    94   1
    97    47    95   1
@<TRIPOS>SUBSTRUCTURE
     1  MOL      1

