@<TRIPOS>MOLECULE
4gid_ligand_034
    95    97
SMALL
GAST_HUCK
****
This file was generated by PARSER (from files_GN.cpp)

@<TRIPOS>ATOM
      1 CBK        42.2325   -6.2277   11.3320 C.3         1 MOL      -0.0608
      2 CBL        42.7212   -5.3183   10.1633 C.3         1 MOL      -0.0265
      3 CBM        42.8561   -6.1584    8.8601 C.3         1 MOL      -0.0608
      4 CBN        41.8138   -4.0470    9.9840 C.3         1 MOL       0.0334
      5 NBO        42.4026   -2.8074   10.4086 N.am        1 MOL      -0.2820
      6 CBP        43.0378   -2.5899   11.5552 C.2         1 MOL       0.2271
      7 OBV        43.2405   -3.5064   12.3452 O.2         1 MOL      -0.3908
      8 CBG        43.4346   -1.2394   11.9373 C.3         1 MOL       0.0928
      9 CBH        42.2254   -0.3557   12.3947 C.3         1 MOL       0.1121
     10 CBJ        41.1091   -1.0598   13.2138 C.3         1 MOL      -0.0314
     11 OBI        42.6901    0.7266   13.2032 O.3         1 MOL      -0.3840
     12 NBF        44.2101   -0.6332   10.8137 N.4         1 MOL       0.2497
     13 CAX        45.0211    0.5934   11.0386 C.3         1 MOL      -0.0062
     14 CAW        46.0946    0.4886   12.1634 C.3         1 MOL       0.0906
     15 CAY        46.5616    1.9004   12.6359 C.3         1 MOL       0.0089
     16 CAZ        47.8634    1.8887   13.3594 C.ar        1 MOL      -0.0406
     17 CBA        49.0749    2.1717   12.6832 C.ar        1 MOL      -0.0603
     18 CBB        50.3051    2.1468   13.3697 C.ar        1 MOL      -0.0686
     19 CBC        50.3457    1.8095   14.7342 C.ar        1 MOL      -0.0687
     20 CBD        49.1523    1.5024   15.4120 C.ar        1 MOL      -0.0686
     21 CBE        47.9193    1.5531   14.7312 C.ar        1 MOL      -0.0603
     22 NAV        47.2382   -0.2252   11.6850 N.am        1 MOL      -0.2761
     23 CAT        47.6336   -1.4626   11.9765 C.2         1 MOL       0.2026
     24 OAU        46.8749   -2.2454   12.5394 O.2         1 MOL      -0.3847
     25 CAP        48.8947   -1.8864   11.5671 C.ar        1 MOL       0.0397
     26 CAQ        50.0206   -1.0352   11.7175 C.ar        1 MOL      -0.0393
     27 CAO        49.0860   -3.1452   10.9593 C.ar        1 MOL      -0.0214
     28 CAN        50.3475   -3.5073   10.4390 C.ar        1 MOL       0.0754
     29 NAE        50.5409   -4.7067    9.8306 N.am        1 MOL      -0.1796
     30 CBT        51.0245   -5.8223   10.5918 C.3         1 MOL       0.0445
     31 SAB        50.4540   -4.8000    8.1412 S.o2        1 MOL       0.0593
     32 OAC        50.3721   -3.3305    7.5318 O.2         1 MOL      -0.1500
     33 OAD        51.8233   -5.3623    7.5551 O.2         1 MOL      -0.1500
     34 CAA        49.0291   -5.6891    7.4955 C.3         1 MOL       0.0790
     35 CAS        51.4278   -2.6154   10.5515 C.ar        1 MOL      -0.0214
     36 CAR        51.3014   -1.3698   11.2098 C.ar        1 MOL       0.0398
     37 CAL        52.4050   -0.5113   11.3275 C.2         1 MOL       0.2041
     38 OAM        53.5202   -0.9898   11.5238 O.2         1 MOL      -0.3845
     39 NBQ        52.2910    0.8099   11.1797 N.am        1 MOL      -0.2723
     40 CBR        53.3454    1.7842   11.0883 C.3         1 MOL       0.0723
     41 CBS        53.6158    2.0780    9.5853 C.3         1 MOL      -0.0320
     42 CAI        54.5287    1.4579   11.9559 C.ar        1 MOL      -0.0183
     43 CAH        55.8144    1.1347   11.4451 C.ar        1 MOL      -0.0582
     44 CAG        56.8888    0.8260   12.3071 C.ar        1 MOL      -0.0685
     45 CAF        56.7023    0.8499   13.6975 C.ar        1 MOL      -0.0687
     46 CAK        55.4472    1.1834   14.2272 C.ar        1 MOL      -0.0685
     47 CAJ        54.3730    1.4832   13.3657 C.ar        1 MOL      -0.0582
     48 H1         42.9166   -7.0705   11.4862 H           1 MOL       0.0233
     49 H2         41.2326   -6.6194   11.1171 H           1 MOL       0.0233
     50 H3         42.1886   -5.6539   12.2640 H           1 MOL       0.0233
     51 H4         43.7358   -5.0001   10.4199 H           1 MOL       0.0315
     52 H5         43.2925   -5.5422    8.0707 H           1 MOL       0.0233
     53 H6         41.8783   -6.5170    8.5280 H           1 MOL       0.0233
     54 H7         43.5113   -7.0188    9.0250 H           1 MOL       0.0233
     55 H8         40.8665   -4.1645   10.5226 H           1 MOL       0.0522
     56 H9         41.5458   -3.9200    8.9313 H           1 MOL       0.0522
     57 H10        42.2723   -2.0457    9.8171 H           1 MOL       0.1853
     58 H11        44.1097   -1.3299   12.7839 H           1 MOL       0.1125
     59 H12        41.7615    0.0848   11.5045 H           1 MOL       0.0674
     60 H13        40.3453   -0.3329   13.5069 H           1 MOL       0.0258
     61 H14        41.5245   -1.5148   14.1145 H           1 MOL       0.0258
     62 H15        40.6234   -1.8330   12.6147 H           1 MOL       0.0258
     63 H16        43.5031    0.3924   13.6388 H           1 MOL       0.2102
     64 H17        43.5312   -0.3955   10.0812 H           1 MOL       0.2037
     65 H18        44.8436   -1.3450   10.4363 H           1 MOL       0.2037
     66 H19        44.3574    1.4365   11.2227 H           1 MOL       0.0839
     67 H20        45.5326    0.8134   10.0958 H           1 MOL       0.0839
     68 H21        45.6647   -0.0147   13.0321 H           1 MOL       0.0632
     69 H22        45.8083    2.3330   13.2995 H           1 MOL       0.0450
     70 H23        46.6181    2.5554   11.7569 H           1 MOL       0.0450
     71 H24        49.0765    2.4038   11.6878 H           1 MOL       0.0557
     72 H25        51.1714    2.3834   12.8763 H           1 MOL       0.0599
     73 H26        51.2386    1.7911   15.2330 H           1 MOL       0.0559
     74 H27        49.1815    1.2518   16.4055 H           1 MOL       0.0599
     75 H28        47.0649    1.3363   15.2463 H           1 MOL       0.0557
     76 H29        47.8526    0.2989   11.1416 H           1 MOL       0.1852
     77 H30        49.9019   -0.1473   12.2228 H           1 MOL       0.0576
     78 H31        48.3024   -3.7954   10.8501 H           1 MOL       0.0566
     79 H32        51.1877   -5.5697   11.6420 H           1 MOL       0.0517
     80 H33        51.9753   -6.1794   10.1933 H           1 MOL       0.0517
     81 H34        50.2990   -6.6333   10.5555 H           1 MOL       0.0517
     82 H35        49.0380   -5.6575    6.4074 H           1 MOL       0.0487
     83 H36        48.1227   -5.2150    7.8658 H           1 MOL       0.0487
     84 H37        49.0568   -6.7239    7.8249 H           1 MOL       0.0487
     85 H38        52.3208   -2.8801   10.1251 H           1 MOL       0.0566
     86 H39        51.3998    1.1344   10.9709 H           1 MOL       0.1875
     87 H40        52.9227    2.7139   11.4834 H           1 MOL       0.0716
     88 H41        54.3404    2.8880    9.4787 H           1 MOL       0.0274
     89 H42        52.6908    2.3862    9.0873 H           1 MOL       0.0274
     90 H43        53.9980    1.1886    9.0753 H           1 MOL       0.0274
     91 H44        55.9894    1.1035   10.4402 H           1 MOL       0.0557
     92 H45        57.8030    0.5855   11.9163 H           1 MOL       0.0599
     93 H46        57.4823    0.6327   14.3208 H           1 MOL       0.0559
     94 H47        55.3110    1.2091   15.2420 H           1 MOL       0.0599
     95 H48        53.4698    1.7166   13.7786 H           1 MOL       0.0557
@<TRIPOS>BOND
     1     1     2   1
     2     2     3   1
     3     2     4   1
     4     4     5   1
     5     5     6  am
     6     6     7   2
     7     6     8   1
     8     8     9   1
     9     8    12   1
    10     9    10   1
    11     9    11   1
    12    12    13   1
    13    13    14   1
    14    14    15   1
    15    14    22   1
    16    15    16   1
    17    16    17  ar
    18    16    21  ar
    19    17    18  ar
    20    18    19  ar
    21    19    20  ar
    22    20    21  ar
    23    22    23  am
    24    23    24   2
    25    23    25   1
    26    25    26  ar
    27    25    27  ar
    28    26    36  ar
    29    27    28  ar
    30    28    29   1
    31    28    35  ar
    32    29    30   1
    33    29    31  am
    34    31    32   2
    35    31    33   2
    36    31    34   1
    37    35    36  ar
    38    36    37   1
    39    37    38   2
    40    37    39  am
    41    39    40   1
    42    40    41   1
    43    40    42   1
    44    42    43  ar
    45    42    47  ar
    46    43    44  ar
    47    44    45  ar
    48    45    46  ar
    49    46    47  ar
    50     1    48   1
    51     1    49   1
    52     1    50   1
    53     2    51   1
    54     3    52   1
    55     3    53   1
    56     3    54   1
    57     4    55   1
    58     4    56   1
    59     5    57   1
    60     8    58   1
    61     9    59   1
    62    10    60   1
    63    10    61   1
    64    10    62   1
    65    11    63   1
    66    12    64   1
    67    12    65   1
    68    13    66   1
    69    13    67   1
    70    14    68   1
    71    15    69   1
    72    15    70   1
    73    17    71   1
    74    18    72   1
    75    19    73   1
    76    20    74   1
    77    21    75   1
    78    22    76   1
    79    26    77   1
    80    27    78   1
    81    30    79   1
    82    30    80   1
    83    30    81   1
    84    34    82   1
    85    34    83   1
    86    34    84   1
    87    35    85   1
    88    39    86   1
    89    40    87   1
    90    41    88   1
    91    41    89   1
    92    41    90   1
    93    43    91   1
    94    44    92   1
    95    45    93   1
    96    46    94   1
    97    47    95   1
@<TRIPOS>SUBSTRUCTURE
     1  MOL      1

