@<TRIPOS>MOLECULE
4gid_ligand_093
    95    97
SMALL
GAST_HUCK
****
This file was generated by PARSER (from files_GN.cpp)

@<TRIPOS>ATOM
      1 CBK        40.6176   -8.5961   13.0835 C.3         1 MOL      -0.0608
      2 CBL        39.9259   -9.7421   12.2986 C.3         1 MOL      -0.0265
      3 CBM        38.4515   -9.9197   12.7560 C.3         1 MOL      -0.0608
      4 CBN        40.0585   -9.6746   10.7331 C.3         1 MOL       0.0334
      5 NBO        40.6824   -8.4964   10.2077 N.am        1 MOL      -0.2820
      6 CBP        41.0919   -8.3182    8.9562 C.2         1 MOL       0.2271
      7 OBV        41.0747   -9.2451    8.1487 O.2         1 MOL      -0.3908
      8 CBG        41.4087   -6.9675    8.4891 C.3         1 MOL       0.0928
      9 CBH        42.8075   -6.4748    9.0061 C.3         1 MOL       0.1121
     10 CBJ        43.0085   -4.9355    8.9218 C.3         1 MOL      -0.0314
     11 OBI        43.0357   -6.8462   10.3673 O.3         1 MOL      -0.3840
     12 NBF        40.3587   -5.9875    8.8779 N.4         1 MOL       0.2497
     13 CAX        38.9130   -6.3403    8.8593 C.3         1 MOL      -0.0062
     14 CAW        38.2588   -6.2213   10.2761 C.3         1 MOL       0.0906
     15 CAY        36.7167   -6.4571   10.2643 C.3         1 MOL       0.0089
     16 CAZ        35.9588   -5.6141    9.2988 C.ar        1 MOL      -0.0406
     17 CBA        35.7537   -6.0532    7.9685 C.ar        1 MOL      -0.0603
     18 CBB        35.1255   -5.2208    7.0235 C.ar        1 MOL      -0.0686
     19 CBC        34.6534   -3.9520    7.4036 C.ar        1 MOL      -0.0687
     20 CBD        34.8043   -3.5231    8.7340 C.ar        1 MOL      -0.0686
     21 CBE        35.4573   -4.3452    9.6732 C.ar        1 MOL      -0.0603
     22 NAV        38.5832   -4.9828   10.9455 N.am        1 MOL      -0.2761
     23 CAT        39.6519   -4.7590   11.7086 C.2         1 MOL       0.2026
     24 OAU        40.4535   -5.6499   11.9602 O.2         1 MOL      -0.3847
     25 CAP        39.9321   -3.5181   12.2485 C.ar        1 MOL       0.0397
     26 CAQ        41.1324   -2.8501   11.9080 C.ar        1 MOL      -0.0393
     27 CAO        39.1129   -2.9799   13.2632 C.ar        1 MOL      -0.0214
     28 CAN        39.4948   -1.8132   13.9592 C.ar        1 MOL       0.0754
     29 NAE        38.7548   -1.3510   15.0168 N.am        1 MOL      -0.1796
     30 CBT        37.3900   -0.9349   14.8629 C.3         1 MOL       0.0445
     31 SAB        39.3743   -1.5387   16.5825 S.o2        1 MOL       0.0593
     32 OAC        40.3639   -0.3608   16.9803 O.2         1 MOL      -0.1500
     33 OAD        38.2080   -1.4131   17.6583 O.2         1 MOL      -0.1500
     34 CAA        40.1978   -3.1171   16.8518 C.3         1 MOL       0.0790
     35 CAS        40.6821   -1.1531   13.5709 C.ar        1 MOL      -0.0214
     36 CAR        41.5334   -1.6452   12.5436 C.ar        1 MOL       0.0398
     37 CAL        42.7096   -0.9594   12.1712 C.2         1 MOL       0.2041
     38 OAM        42.8445    0.2093   12.5245 O.2         1 MOL      -0.3845
     39 NBQ        43.6799   -1.5195   11.4429 N.am        1 MOL      -0.2723
     40 CBR        44.9057   -0.9113   10.9980 C.3         1 MOL       0.0723
     41 CBS        44.9500   -0.8795    9.4494 C.3         1 MOL      -0.0320
     42 CAI        46.0668   -1.6236   11.6141 C.ar        1 MOL      -0.0183
     43 CAH        46.7065   -1.0653   12.7477 C.ar        1 MOL      -0.0582
     44 CAG        47.7990   -1.7063   13.3553 C.ar        1 MOL      -0.0685
     45 CAF        48.2878   -2.9113   12.8260 C.ar        1 MOL      -0.0687
     46 CAK        47.6681   -3.4840   11.7012 C.ar        1 MOL      -0.0685
     47 CAJ        46.5563   -2.8547   11.1083 C.ar        1 MOL      -0.0582
     48 H1         40.7060   -8.8515   14.1424 H           1 MOL       0.0233
     49 H2         40.0446   -7.6736   12.9933 H           1 MOL       0.0233
     50 H3         41.6235   -8.4340   12.6939 H           1 MOL       0.0233
     51 H4         40.4504  -10.6477   12.6167 H           1 MOL       0.0315
     52 H5         38.0088  -10.7775   12.2489 H           1 MOL       0.0233
     53 H6         37.8595   -9.0349   12.5144 H           1 MOL       0.0233
     54 H7         38.4001  -10.1028   13.8317 H           1 MOL       0.0233
     55 H8         39.0712   -9.7508   10.2661 H           1 MOL       0.0522
     56 H9         40.6258  -10.5451   10.3949 H           1 MOL       0.0522
     57 H10        40.7409   -7.7284   10.7975 H           1 MOL       0.1853
     58 H11        41.4551   -6.9595    7.3944 H           1 MOL       0.1125
     59 H12        43.5927   -6.9428    8.4004 H           1 MOL       0.0674
     60 H13        44.0516   -4.6780    9.1208 H           1 MOL       0.0258
     61 H14        42.3827   -4.4224    9.6588 H           1 MOL       0.0258
     62 H15        42.7467   -4.5652    7.9288 H           1 MOL       0.0258
     63 H16        43.1512   -7.8193   10.3461 H           1 MOL       0.2102
     64 H17        40.4760   -5.1627    8.2828 H           1 MOL       0.2037
     65 H18        40.5995   -5.7066    9.8241 H           1 MOL       0.2037
     66 H19        38.7586   -7.3529    8.4833 H           1 MOL       0.0839
     67 H20        38.4287   -5.6702    8.1462 H           1 MOL       0.0839
     68 H21        38.6643   -7.0428   10.8749 H           1 MOL       0.0632
     69 H22        36.3276   -6.2961   11.2736 H           1 MOL       0.0450
     70 H23        36.5205   -7.5097   10.0410 H           1 MOL       0.0450
     71 H24        36.0845   -6.9728    7.6692 H           1 MOL       0.0557
     72 H25        35.0127   -5.5388    6.0585 H           1 MOL       0.0599
     73 H26        34.2002   -3.3467    6.7138 H           1 MOL       0.0559
     74 H27        34.4428   -2.6076    9.0132 H           1 MOL       0.0599
     75 H28        35.5662   -4.0146   10.6300 H           1 MOL       0.0557
     76 H29        37.9813   -4.2347   10.7929 H           1 MOL       0.1852
     77 H30        41.7118   -3.2529   11.1677 H           1 MOL       0.0576
     78 H31        38.2686   -3.4801   13.5541 H           1 MOL       0.0566
     79 H32        37.0769   -0.9109   13.8176 H           1 MOL       0.0517
     80 H33        37.2589    0.0689   15.2694 H           1 MOL       0.0517
     81 H34        36.7283   -1.6193   15.3950 H           1 MOL       0.0517
     82 H35        40.5419   -3.1820   17.8849 H           1 MOL       0.0487
     83 H36        41.0552   -3.1947   16.1823 H           1 MOL       0.0487
     84 H37        39.5077   -3.9369   16.6500 H           1 MOL       0.0487
     85 H38        40.9281   -0.2861   14.0605 H           1 MOL       0.0566
     86 H39        43.5619   -2.4460   11.1851 H           1 MOL       0.1875
     87 H40        44.9351    0.1406   11.2982 H           1 MOL       0.0716
     88 H41        45.9260   -0.5268    9.1090 H           1 MOL       0.0274
     89 H42        44.1918   -0.1895    9.0703 H           1 MOL       0.0274
     90 H43        44.7642   -1.8698    9.0247 H           1 MOL       0.0274
     91 H44        46.3734   -0.1866   13.1511 H           1 MOL       0.0557
     92 H45        48.2380   -1.2912   14.1800 H           1 MOL       0.0599
     93 H46        49.0898   -3.3692   13.2610 H           1 MOL       0.0559
     94 H47        48.0246   -4.3623   11.3180 H           1 MOL       0.0599
     95 H48        46.1169   -3.2975   10.2975 H           1 MOL       0.0557
@<TRIPOS>BOND
     1     1     2   1
     2     2     3   1
     3     2     4   1
     4     4     5   1
     5     5     6  am
     6     6     7   2
     7     6     8   1
     8     8     9   1
     9     8    12   1
    10     9    10   1
    11     9    11   1
    12    12    13   1
    13    13    14   1
    14    14    15   1
    15    14    22   1
    16    15    16   1
    17    16    17  ar
    18    16    21  ar
    19    17    18  ar
    20    18    19  ar
    21    19    20  ar
    22    20    21  ar
    23    22    23  am
    24    23    24   2
    25    23    25   1
    26    25    26  ar
    27    25    27  ar
    28    26    36  ar
    29    27    28  ar
    30    28    29   1
    31    28    35  ar
    32    29    30   1
    33    29    31  am
    34    31    32   2
    35    31    33   2
    36    31    34   1
    37    35    36  ar
    38    36    37   1
    39    37    38   2
    40    37    39  am
    41    39    40   1
    42    40    41   1
    43    40    42   1
    44    42    43  ar
    45    42    47  ar
    46    43    44  ar
    47    44    45  ar
    48    45    46  ar
    49    46    47  ar
    50     1    48   1
    51     1    49   1
    52     1    50   1
    53     2    51   1
    54     3    52   1
    55     3    53   1
    56     3    54   1
    57     4    55   1
    58     4    56   1
    59     5    57   1
    60     8    58   1
    61     9    59   1
    62    10    60   1
    63    10    61   1
    64    10    62   1
    65    11    63   1
    66    12    64   1
    67    12    65   1
    68    13    66   1
    69    13    67   1
    70    14    68   1
    71    15    69   1
    72    15    70   1
    73    17    71   1
    74    18    72   1
    75    19    73   1
    76    20    74   1
    77    21    75   1
    78    22    76   1
    79    26    77   1
    80    27    78   1
    81    30    79   1
    82    30    80   1
    83    30    81   1
    84    34    82   1
    85    34    83   1
    86    34    84   1
    87    35    85   1
    88    39    86   1
    89    40    87   1
    90    41    88   1
    91    41    89   1
    92    41    90   1
    93    43    91   1
    94    44    92   1
    95    45    93   1
    96    46    94   1
    97    47    95   1
@<TRIPOS>SUBSTRUCTURE
     1  MOL      1

