@<TRIPOS>MOLECULE
4gid_ligand_017
    95    97
SMALL
GAST_HUCK
****
This file was generated by PARSER (from files_GN.cpp)

@<TRIPOS>ATOM
      1 CBK        47.4700   -2.0589   16.0346 C.3         1 MOL      -0.0608
      2 CBL        48.3649   -0.8513   16.4206 C.3         1 MOL      -0.0265
      3 CBM        49.6494   -0.8009   15.5530 C.3         1 MOL      -0.0608
      4 CBN        47.5795    0.4989   16.4037 C.3         1 MOL       0.0334
      5 NBO        47.2908    0.9295   15.0698 N.am        1 MOL      -0.2820
      6 CBP        46.1246    1.3478   14.5814 C.2         1 MOL       0.2271
      7 OBV        45.1531    1.5160   15.3182 O.2         1 MOL      -0.3908
      8 CBG        45.9931    1.4369   13.1252 C.3         1 MOL       0.0928
      9 CBH        46.7039    2.7053   12.5103 C.3         1 MOL       0.1121
     10 CBJ        47.5114    2.3646   11.2251 C.3         1 MOL      -0.0314
     11 OBI        45.7766    3.7482   12.1919 O.3         1 MOL      -0.3840
     12 NBF        44.5644    1.2790   12.7093 N.4         1 MOL       0.2497
     13 CAX        44.2772    0.8372   11.3154 C.3         1 MOL      -0.0062
     14 CAW        44.4777   -0.7028   11.1028 C.3         1 MOL       0.0906
     15 CAY        45.1832   -1.0551    9.7400 C.3         1 MOL       0.0089
     16 CAZ        46.3514   -1.9828    9.8529 C.ar        1 MOL      -0.0406
     17 CBA        46.4811   -3.1238    9.0264 C.ar        1 MOL      -0.0603
     18 CBB        47.6238   -3.9484    9.0991 C.ar        1 MOL      -0.0686
     19 CBC        48.6399   -3.6615   10.0239 C.ar        1 MOL      -0.0687
     20 CBD        48.5348   -2.5277   10.8459 C.ar        1 MOL      -0.0686
     21 CBE        47.4107   -1.6847   10.7445 C.ar        1 MOL      -0.0603
     22 NAV        43.2228   -1.3997   11.2619 N.am        1 MOL      -0.2761
     23 CAT        43.0510   -2.5644   11.8801 C.2         1 MOL       0.2026
     24 OAU        44.0130   -3.1298   12.3911 O.2         1 MOL      -0.3847
     25 CAP        41.8047   -3.1837   11.9486 C.ar        1 MOL       0.0397
     26 CAQ        40.7114   -2.5986   12.6352 C.ar        1 MOL      -0.0393
     27 CAO        41.6202   -4.4443   11.3361 C.ar        1 MOL      -0.0214
     28 CAN        40.3806   -5.1084   11.3857 C.ar        1 MOL       0.0754
     29 NAE        40.2524   -6.3266   10.7662 N.am        1 MOL      -0.1796
     30 CBT        40.3059   -6.4429    9.3353 C.3         1 MOL       0.0445
     31 SAB        39.8340   -7.6944   11.6749 S.o2        1 MOL       0.0593
     32 OAC        40.0936   -7.4074   13.2179 O.2         1 MOL      -0.1500
     33 OAD        38.2836   -8.0271   11.5320 O.2         1 MOL      -0.1500
     34 CAA        40.8408   -9.1444   11.3076 C.3         1 MOL       0.0790
     35 CAS        39.3113   -4.5025   12.0704 C.ar        1 MOL      -0.0214
     36 CAR        39.4599   -3.2537   12.7208 C.ar        1 MOL       0.0398
     37 CAL        38.3808   -2.6900   13.4030 C.2         1 MOL       0.2041
     38 OAM        37.2505   -2.8578   12.9630 O.2         1 MOL      -0.3845
     39 NBQ        38.5494   -2.0292   14.5408 N.am        1 MOL      -0.2723
     40 CBR        37.5318   -1.3301   15.2860 C.3         1 MOL       0.0723
     41 CBS        38.1635   -0.6988   16.5582 C.3         1 MOL      -0.0320
     42 CAI        36.3452   -2.1762   15.6455 C.ar        1 MOL      -0.0183
     43 CAH        35.0671   -1.9095   15.0904 C.ar        1 MOL      -0.0582
     44 CAG        33.9535   -2.7031   15.4184 C.ar        1 MOL      -0.0685
     45 CAF        34.0976   -3.7816   16.3074 C.ar        1 MOL      -0.0687
     46 CAK        35.3581   -4.0646   16.8664 C.ar        1 MOL      -0.0685
     47 CAJ        36.4707   -3.2714   16.5346 C.ar        1 MOL      -0.0582
     48 H1         48.0298   -2.9921   16.1134 H           1 MOL       0.0233
     49 H2         47.1106   -1.9557   15.0066 H           1 MOL       0.0233
     50 H3         46.6124   -2.1203   16.7065 H           1 MOL       0.0233
     51 H4         48.6879   -1.0144   17.4579 H           1 MOL       0.0315
     52 H5         50.2626    0.0623   15.8244 H           1 MOL       0.0233
     53 H6         49.3930   -0.7332   14.4921 H           1 MOL       0.0233
     54 H7         50.2460   -1.7029   15.7095 H           1 MOL       0.0233
     55 H8         48.1983    1.2665   16.8831 H           1 MOL       0.0522
     56 H9         46.6733    0.3987   17.0084 H           1 MOL       0.0522
     57 H10        48.0194    0.8493   14.4305 H           1 MOL       0.1853
     58 H11        46.5017    0.5342   12.7618 H           1 MOL       0.1125
     59 H12        47.4265    3.1238   13.2233 H           1 MOL       0.0674
     60 H13        48.0274    3.2491   10.8534 H           1 MOL       0.0258
     61 H14        46.8521    1.9923   10.4353 H           1 MOL       0.0258
     62 H15        48.2680    1.6010   11.4443 H           1 MOL       0.0258
     63 H16        46.0602    4.5253   12.7211 H           1 MOL       0.2102
     64 H17        44.0836    2.1740   12.8608 H           1 MOL       0.2037
     65 H18        44.1403    0.5783   13.3320 H           1 MOL       0.2037
     66 H19        44.8980    1.4304   10.6353 H           1 MOL       0.0839
     67 H20        43.2430    1.1125   11.0932 H           1 MOL       0.0839
     68 H21        45.1252   -1.0388   11.9203 H           1 MOL       0.0632
     69 H22        45.5782   -0.1591    9.2588 H           1 MOL       0.0450
     70 H23        44.4366   -1.4620    9.0475 H           1 MOL       0.0450
     71 H24        45.7473   -3.3536    8.3455 H           1 MOL       0.0557
     72 H25        47.7082   -4.7450    8.4674 H           1 MOL       0.0599
     73 H26        49.4558   -4.2734   10.0894 H           1 MOL       0.0559
     74 H27        49.2868   -2.3088   11.5028 H           1 MOL       0.0599
     75 H28        47.3774   -0.8441   11.3357 H           1 MOL       0.0557
     76 H29        42.4266   -0.9899   10.8709 H           1 MOL       0.1852
     77 H30        40.8323   -1.6900   13.0873 H           1 MOL       0.0576
     78 H31        42.3981   -4.8884   10.8309 H           1 MOL       0.0566
     79 H32        40.4998   -5.4866    8.8377 H           1 MOL       0.0517
     80 H33        39.3554   -6.8288    8.9503 H           1 MOL       0.0517
     81 H34        41.1053   -7.1318    9.0526 H           1 MOL       0.0517
     82 H35        40.5901   -9.9476   11.9999 H           1 MOL       0.0487
     83 H36        41.8958   -8.8927   11.4121 H           1 MOL       0.0487
     84 H37        40.6467   -9.4770   10.2873 H           1 MOL       0.0487
     85 H38        38.4141   -4.9989   12.1026 H           1 MOL       0.0566
     86 H39        39.4537   -1.9808   14.8928 H           1 MOL       0.1875
     87 H40        37.2143   -0.4890   14.6604 H           1 MOL       0.0716
     88 H41        37.4237   -0.0988   17.0953 H           1 MOL       0.0274
     89 H42        38.9962   -0.0500   16.2797 H           1 MOL       0.0274
     90 H43        38.5469   -1.4680   17.2321 H           1 MOL       0.0274
     91 H44        34.9413   -1.1343   14.4394 H           1 MOL       0.0557
     92 H45        33.0429   -2.5024   14.9998 H           1 MOL       0.0599
     93 H46        33.2872   -4.3567   16.5497 H           1 MOL       0.0559
     94 H47        35.4618   -4.8516   17.5098 H           1 MOL       0.0599
     95 H48        37.3778   -3.4979   16.9455 H           1 MOL       0.0557
@<TRIPOS>BOND
     1     1     2   1
     2     2     3   1
     3     2     4   1
     4     4     5   1
     5     5     6  am
     6     6     7   2
     7     6     8   1
     8     8     9   1
     9     8    12   1
    10     9    10   1
    11     9    11   1
    12    12    13   1
    13    13    14   1
    14    14    15   1
    15    14    22   1
    16    15    16   1
    17    16    17  ar
    18    16    21  ar
    19    17    18  ar
    20    18    19  ar
    21    19    20  ar
    22    20    21  ar
    23    22    23  am
    24    23    24   2
    25    23    25   1
    26    25    26  ar
    27    25    27  ar
    28    26    36  ar
    29    27    28  ar
    30    28    29   1
    31    28    35  ar
    32    29    30   1
    33    29    31  am
    34    31    32   2
    35    31    33   2
    36    31    34   1
    37    35    36  ar
    38    36    37   1
    39    37    38   2
    40    37    39  am
    41    39    40   1
    42    40    41   1
    43    40    42   1
    44    42    43  ar
    45    42    47  ar
    46    43    44  ar
    47    44    45  ar
    48    45    46  ar
    49    46    47  ar
    50     1    48   1
    51     1    49   1
    52     1    50   1
    53     2    51   1
    54     3    52   1
    55     3    53   1
    56     3    54   1
    57     4    55   1
    58     4    56   1
    59     5    57   1
    60     8    58   1
    61     9    59   1
    62    10    60   1
    63    10    61   1
    64    10    62   1
    65    11    63   1
    66    12    64   1
    67    12    65   1
    68    13    66   1
    69    13    67   1
    70    14    68   1
    71    15    69   1
    72    15    70   1
    73    17    71   1
    74    18    72   1
    75    19    73   1
    76    20    74   1
    77    21    75   1
    78    22    76   1
    79    26    77   1
    80    27    78   1
    81    30    79   1
    82    30    80   1
    83    30    81   1
    84    34    82   1
    85    34    83   1
    86    34    84   1
    87    35    85   1
    88    39    86   1
    89    40    87   1
    90    41    88   1
    91    41    89   1
    92    41    90   1
    93    43    91   1
    94    44    92   1
    95    45    93   1
    96    46    94   1
    97    47    95   1
@<TRIPOS>SUBSTRUCTURE
     1  MOL      1

