@<TRIPOS>MOLECULE
4gid_ligand_073
    95    97
SMALL
GAST_HUCK
****
This file was generated by PARSER (from files_GN.cpp)

@<TRIPOS>ATOM
      1 CBK        46.0939   -1.0305   19.8684 C.3         1 MOL      -0.0608
      2 CBL        46.0243    0.4035   19.2756 C.3         1 MOL      -0.0265
      3 CBM        47.0557    1.3463   19.9615 C.3         1 MOL      -0.0608
      4 CBN        46.1497    0.4087   17.7213 C.3         1 MOL       0.0334
      5 NBO        47.4715    0.1384   17.2419 N.am        1 MOL      -0.2820
      6 CBP        47.9714   -1.0376   16.8678 C.2         1 MOL       0.2271
      7 OBV        47.2599   -2.0416   16.9123 O.2         1 MOL      -0.3908
      8 CBG        49.3546   -1.2032   16.4207 C.3         1 MOL       0.0928
      9 CBH        50.1825   -2.0689   17.4230 C.3         1 MOL       0.1121
     10 CBJ        51.3829   -2.8074   16.7655 C.3         1 MOL      -0.0314
     11 OBI        50.6557   -1.2422   18.4976 O.3         1 MOL      -0.3840
     12 NBF        50.0788    0.0828   16.2005 N.4         1 MOL       0.2497
     13 CAX        49.9105    0.7919   14.9109 C.3         1 MOL      -0.0062
     14 CAW        50.8024    0.2008   13.7658 C.3         1 MOL       0.0906
     15 CAY        51.3797    1.3209   12.8409 C.3         1 MOL       0.0089
     16 CAZ        52.1205    0.9245   11.6028 C.ar        1 MOL      -0.0406
     17 CBA        52.2836    1.8756   10.5644 C.ar        1 MOL      -0.0603
     18 CBB        52.9310    1.5364    9.3593 C.ar        1 MOL      -0.0686
     19 CBC        53.4542    0.2415    9.1838 C.ar        1 MOL      -0.0687
     20 CBD        53.3626   -0.6955   10.2259 C.ar        1 MOL      -0.0686
     21 CBE        52.7196   -0.3493   11.4303 C.ar        1 MOL      -0.0603
     22 NAV        50.0308   -0.7156   12.9674 N.am        1 MOL      -0.2761
     23 CAT        50.3059   -1.9856   12.7020 C.2         1 MOL       0.2026
     24 OAU        51.2543   -2.5536   13.2423 O.2         1 MOL      -0.3847
     25 CAP        49.5981   -2.6780   11.7264 C.ar        1 MOL       0.0397
     26 CAQ        48.1812   -2.6269   11.6597 C.ar        1 MOL      -0.0393
     27 CAO        50.2844   -3.4254   10.7436 C.ar        1 MOL      -0.0214
     28 CAN        49.6026   -4.1165    9.7249 C.ar        1 MOL       0.0754
     29 NAE        50.3030   -4.8239    8.7760 N.am        1 MOL      -0.1796
     30 CBT        51.3691   -5.7168    9.1353 C.3         1 MOL       0.0445
     31 SAB        50.0014   -4.5665    7.1291 S.o2        1 MOL       0.0593
     32 OAC        51.3246   -4.8401    6.2906 O.2         1 MOL      -0.1500
     33 OAD        48.9018   -5.5722    6.5761 O.2         1 MOL      -0.1500
     34 CAA        49.5730   -2.8620    6.7174 C.3         1 MOL       0.0790
     35 CAS        48.1901   -4.0541    9.6960 C.ar        1 MOL      -0.0214
     36 CAR        47.4501   -3.3153   10.6556 C.ar        1 MOL       0.0398
     37 CAL        46.0520   -3.3041   10.6301 C.2         1 MOL       0.2041
     38 OAM        45.4515   -3.1196   11.6847 O.2         1 MOL      -0.3845
     39 NBQ        45.3613   -3.5251    9.5106 N.am        1 MOL      -0.2723
     40 CBR        43.9511   -3.7133    9.2669 C.3         1 MOL       0.0723
     41 CBS        43.4964   -2.7186    8.1601 C.3         1 MOL      -0.0320
     42 CAI        43.0312   -3.7165   10.4554 C.ar        1 MOL      -0.0183
     43 CAH        42.6098   -4.9392   11.0392 C.ar        1 MOL      -0.0582
     44 CAG        41.7907   -4.9512   12.1845 C.ar        1 MOL      -0.0685
     45 CAF        41.3868   -3.7416   12.7715 C.ar        1 MOL      -0.0687
     46 CAK        41.7682   -2.5192   12.1937 C.ar        1 MOL      -0.0685
     47 CAJ        42.5822   -2.5081   11.0446 C.ar        1 MOL      -0.0582
     48 H1         45.8669   -1.0099   20.9360 H           1 MOL       0.0233
     49 H2         47.0886   -1.4606   19.7283 H           1 MOL       0.0233
     50 H3         45.3608   -1.6762   19.3790 H           1 MOL       0.0233
     51 H4         45.0284    0.7924   19.5135 H           1 MOL       0.0315
     52 H5         47.0033    2.3474   19.5266 H           1 MOL       0.0233
     53 H6         48.0711    0.9602   19.8314 H           1 MOL       0.0233
     54 H7         46.8468    1.4270   21.0305 H           1 MOL       0.0233
     55 H8         45.8854    1.4057   17.3538 H           1 MOL       0.0522
     56 H9         45.4247   -0.2837   17.2809 H           1 MOL       0.0522
     57 H10        48.0661    0.9071   17.1937 H           1 MOL       0.1853
     58 H11        49.3096   -1.7489   15.4735 H           1 MOL       0.1125
     59 H12        49.5481   -2.8459   17.8646 H           1 MOL       0.0674
     60 H13        51.9383   -3.3606   17.5221 H           1 MOL       0.0258
     61 H14        52.0636   -2.1062   16.2820 H           1 MOL       0.0258
     62 H15        51.0221   -3.5182   16.0184 H           1 MOL       0.0258
     63 H16        51.1160   -1.8506   19.1182 H           1 MOL       0.2102
     64 H17        51.0788   -0.0882   16.3067 H           1 MOL       0.2037
     65 H18        49.8175    0.7307   16.9507 H           1 MOL       0.2037
     66 H19        50.2068    1.8232   15.1118 H           1 MOL       0.0839
     67 H20        48.8540    0.8201   14.6185 H           1 MOL       0.0839
     68 H21        51.6592   -0.2908   14.2336 H           1 MOL       0.0632
     69 H22        52.0636    1.9410   13.4293 H           1 MOL       0.0450
     70 H23        50.5358    1.9570   12.5521 H           1 MOL       0.0450
     71 H24        51.9243    2.8259   10.6757 H           1 MOL       0.0557
     72 H25        53.0197    2.2290    8.6153 H           1 MOL       0.0599
     73 H26        53.9190   -0.0082    8.3095 H           1 MOL       0.0559
     74 H27        53.7687   -1.6258   10.1135 H           1 MOL       0.0599
     75 H28        52.7018   -1.0392   12.1778 H           1 MOL       0.0557
     76 H29        49.2725   -0.3290   12.4988 H           1 MOL       0.1852
     77 H30        47.6785   -2.0882   12.3734 H           1 MOL       0.0576
     78 H31        51.3065   -3.4364   10.7469 H           1 MOL       0.0566
     79 H32        51.4306   -5.8875   10.2123 H           1 MOL       0.0517
     80 H33        52.3159   -5.2952    8.8030 H           1 MOL       0.0517
     81 H34        51.2234   -6.6841    8.6555 H           1 MOL       0.0517
     82 H35        49.5161   -2.7522    5.6354 H           1 MOL       0.0487
     83 H36        50.3382   -2.1921    7.1073 H           1 MOL       0.0487
     84 H37        48.6092   -2.6030    7.1542 H           1 MOL       0.0487
     85 H38        47.7006   -4.5878    8.9750 H           1 MOL       0.0566
     86 H39        45.8999   -3.6203    8.7100 H           1 MOL       0.1875
     87 H40        43.8930   -4.7038    8.7971 H           1 MOL       0.0716
     88 H41        42.4238   -2.8163    7.9724 H           1 MOL       0.0274
     89 H42        44.0289   -2.9340    7.2309 H           1 MOL       0.0274
     90 H43        43.7154   -1.6893    8.4516 H           1 MOL       0.0274
     91 H44        42.9182   -5.8330   10.6498 H           1 MOL       0.0557
     92 H45        41.5117   -5.8429   12.6048 H           1 MOL       0.0599
     93 H46        40.7981   -3.7510   13.6102 H           1 MOL       0.0559
     94 H47        41.4734   -1.6384   12.6201 H           1 MOL       0.0599
     95 H48        42.8618   -1.6051   10.6556 H           1 MOL       0.0557
@<TRIPOS>BOND
     1     1     2   1
     2     2     3   1
     3     2     4   1
     4     4     5   1
     5     5     6  am
     6     6     7   2
     7     6     8   1
     8     8     9   1
     9     8    12   1
    10     9    10   1
    11     9    11   1
    12    12    13   1
    13    13    14   1
    14    14    15   1
    15    14    22   1
    16    15    16   1
    17    16    17  ar
    18    16    21  ar
    19    17    18  ar
    20    18    19  ar
    21    19    20  ar
    22    20    21  ar
    23    22    23  am
    24    23    24   2
    25    23    25   1
    26    25    26  ar
    27    25    27  ar
    28    26    36  ar
    29    27    28  ar
    30    28    29   1
    31    28    35  ar
    32    29    30   1
    33    29    31  am
    34    31    32   2
    35    31    33   2
    36    31    34   1
    37    35    36  ar
    38    36    37   1
    39    37    38   2
    40    37    39  am
    41    39    40   1
    42    40    41   1
    43    40    42   1
    44    42    43  ar
    45    42    47  ar
    46    43    44  ar
    47    44    45  ar
    48    45    46  ar
    49    46    47  ar
    50     1    48   1
    51     1    49   1
    52     1    50   1
    53     2    51   1
    54     3    52   1
    55     3    53   1
    56     3    54   1
    57     4    55   1
    58     4    56   1
    59     5    57   1
    60     8    58   1
    61     9    59   1
    62    10    60   1
    63    10    61   1
    64    10    62   1
    65    11    63   1
    66    12    64   1
    67    12    65   1
    68    13    66   1
    69    13    67   1
    70    14    68   1
    71    15    69   1
    72    15    70   1
    73    17    71   1
    74    18    72   1
    75    19    73   1
    76    20    74   1
    77    21    75   1
    78    22    76   1
    79    26    77   1
    80    27    78   1
    81    30    79   1
    82    30    80   1
    83    30    81   1
    84    34    82   1
    85    34    83   1
    86    34    84   1
    87    35    85   1
    88    39    86   1
    89    40    87   1
    90    41    88   1
    91    41    89   1
    92    41    90   1
    93    43    91   1
    94    44    92   1
    95    45    93   1
    96    46    94   1
    97    47    95   1
@<TRIPOS>SUBSTRUCTURE
     1  MOL      1

