@<TRIPOS>MOLECULE
4gid_ligand_091
    95    97
SMALL
GAST_HUCK
****
This file was generated by PARSER (from files_GN.cpp)

@<TRIPOS>ATOM
      1 CBK        37.1273   -5.3927    6.0718 C.3         1 MOL      -0.0608
      2 CBL        36.6933   -4.9248    4.6516 C.3         1 MOL      -0.0265
      3 CBM        36.8194   -6.0879    3.6375 C.3         1 MOL      -0.0608
      4 CBN        35.2816   -4.2341    4.5985 C.3         1 MOL       0.0334
      5 NBO        34.4012   -4.5629    5.6803 N.am        1 MOL      -0.2820
      6 CBP        33.5953   -3.7392    6.3521 C.2         1 MOL       0.2271
      7 OBV        33.5609   -2.5373    6.0746 O.2         1 MOL      -0.3908
      8 CBG        32.7864   -4.2772    7.4488 C.3         1 MOL       0.0928
      9 CBH        31.6528   -3.3696    8.0482 C.3         1 MOL       0.1121
     10 CBJ        32.0035   -2.5890    9.3352 C.3         1 MOL      -0.0314
     11 OBI        31.1707   -2.4307    7.0697 O.3         1 MOL      -0.3840
     12 NBF        33.5941   -4.9701    8.5154 N.4         1 MOL       0.2497
     13 CAX        34.9559   -4.4332    8.8611 C.3         1 MOL      -0.0062
     14 CAW        35.8785   -5.4204    9.6747 C.3         1 MOL       0.0906
     15 CAY        35.7240   -6.9456    9.3447 C.3         1 MOL       0.0089
     16 CAZ        36.9381   -7.7407    9.6788 C.ar        1 MOL      -0.0406
     17 CBA        37.8987   -8.0470    8.6825 C.ar        1 MOL      -0.0603
     18 CBB        39.0750   -8.7414    8.9922 C.ar        1 MOL      -0.0686
     19 CBC        39.3247   -9.1384   10.3228 C.ar        1 MOL      -0.0687
     20 CBD        38.3783   -8.8619   11.3204 C.ar        1 MOL      -0.0686
     21 CBE        37.1991   -8.1579   11.0049 C.ar        1 MOL      -0.0603
     22 NAV        35.7094   -5.2028   11.0836 N.am        1 MOL      -0.2761
     23 CAT        36.6431   -5.3149   12.0267 C.2         1 MOL       0.2026
     24 OAU        37.7742   -5.6945   11.7552 O.2         1 MOL      -0.3847
     25 CAP        36.3609   -4.9150   13.3202 C.ar        1 MOL       0.0397
     26 CAQ        37.2004   -3.9651   13.9502 C.ar        1 MOL      -0.0393
     27 CAO        35.2699   -5.4485   14.0487 C.ar        1 MOL      -0.0214
     28 CAN        35.0001   -5.0503   15.3676 C.ar        1 MOL       0.0754
     29 NAE        33.9352   -5.5730   16.0576 N.am        1 MOL      -0.1796
     30 CBT        34.0914   -6.1477   17.3655 C.3         1 MOL       0.0445
     31 SAB        32.3634   -5.3458   15.4800 S.o2        1 MOL       0.0593
     32 OAC        31.7303   -4.0772   16.2038 O.2         1 MOL      -0.1500
     33 OAD        32.3800   -4.9749   13.9330 O.2         1 MOL      -0.1500
     34 CAA        31.2580   -6.7607   15.6566 C.3         1 MOL       0.0790
     35 CAS        35.8578   -4.1001   15.9791 C.ar        1 MOL      -0.0214
     36 CAR        36.9573   -3.5502   15.2746 C.ar        1 MOL       0.0398
     37 CAL        37.8132   -2.6725   15.8648 C.2         1 MOL       0.2041
     38 OAM        37.8156   -1.4947   15.4960 O.2         1 MOL      -0.3845
     39 NBQ        38.6992   -3.1341   16.7502 N.am        1 MOL      -0.2723
     40 CBR        39.6734   -2.3648   17.4398 C.3         1 MOL       0.0723
     41 CBS        40.7273   -3.2983   18.0910 C.3         1 MOL      -0.0320
     42 CAI        39.0224   -1.4774   18.4584 C.ar        1 MOL      -0.0183
     43 CAH        39.1749   -0.0782   18.3958 C.ar        1 MOL      -0.0582
     44 CAG        38.5176    0.7634   19.3163 C.ar        1 MOL      -0.0685
     45 CAF        37.7015    0.2052   20.3165 C.ar        1 MOL      -0.0687
     46 CAK        37.5380   -1.1909   20.3910 C.ar        1 MOL      -0.0685
     47 CAJ        38.1954   -2.0256   19.4671 C.ar        1 MOL      -0.0582
     48 H1         38.1789   -5.7684    6.0564 H           1 MOL       0.0233
     49 H2         36.4759   -6.2161    6.3992 H           1 MOL       0.0233
     50 H3         37.0327   -4.5652    6.7844 H           1 MOL       0.0233
     51 H4         37.4333   -4.1751    4.3560 H           1 MOL       0.0315
     52 H5         36.6195   -5.7119    2.6370 H           1 MOL       0.0233
     53 H6         36.1163   -6.8855    3.8764 H           1 MOL       0.0233
     54 H7         37.8314   -6.4925    3.6677 H           1 MOL       0.0233
     55 H8         34.7650   -4.4999    3.6756 H           1 MOL       0.0522
     56 H9         35.4414   -3.1524    4.5471 H           1 MOL       0.0522
     57 H10        34.3803   -5.4899    5.9672 H           1 MOL       0.1853
     58 H11        32.2244   -5.0860    6.9699 H           1 MOL       0.1125
     59 H12        30.8103   -4.0255    8.2894 H           1 MOL       0.0674
     60 H13        31.1790   -1.9222    9.6079 H           1 MOL       0.0258
     61 H14        32.9050   -1.9924    9.1861 H           1 MOL       0.0258
     62 H15        32.1621   -3.2831   10.1647 H           1 MOL       0.0258
     63 H16        30.2124   -2.2775    7.2708 H           1 MOL       0.2102
     64 H17        33.7579   -5.9150    8.1626 H           1 MOL       0.2037
     65 H18        33.0214   -5.0485    9.3668 H           1 MOL       0.2037
     66 H19        34.8444   -3.4885    9.4400 H           1 MOL       0.0839
     67 H20        35.4988   -4.1976    7.9437 H           1 MOL       0.0839
     68 H21        36.8956   -5.1299    9.3855 H           1 MOL       0.0632
     69 H22        35.5149   -7.0600    8.2799 H           1 MOL       0.0450
     70 H23        34.8569   -7.3538    9.8702 H           1 MOL       0.0450
     71 H24        37.7374   -7.7603    7.7134 H           1 MOL       0.0557
     72 H25        39.7584   -8.9523    8.2611 H           1 MOL       0.0599
     73 H26        40.1926   -9.6300   10.5543 H           1 MOL       0.0559
     74 H27        38.5563   -9.1490   12.2863 H           1 MOL       0.0599
     75 H28        36.5351   -7.9497   11.7508 H           1 MOL       0.0557
     76 H29        34.8625   -4.8210   11.3532 H           1 MOL       0.1852
     77 H30        38.0014   -3.5771   13.4430 H           1 MOL       0.0576
     78 H31        34.6751   -6.1639   13.6147 H           1 MOL       0.0566
     79 H32        35.1370   -6.2079   17.6742 H           1 MOL       0.0517
     80 H33        33.6884   -7.1614   17.3745 H           1 MOL       0.0517
     81 H34        33.5545   -5.5485   18.1033 H           1 MOL       0.0517
     82 H35        30.2891   -6.5282   15.2132 H           1 MOL       0.0487
     83 H36        31.1200   -6.9883   16.7138 H           1 MOL       0.0487
     84 H37        31.6869   -7.6280   15.1537 H           1 MOL       0.0487
     85 H38        35.6752   -3.7953   16.9372 H           1 MOL       0.0566
     86 H39        38.6687   -4.0927   16.9047 H           1 MOL       0.1875
     87 H40        40.2153   -1.7656   16.7009 H           1 MOL       0.0716
     88 H41        41.4699   -2.7123   18.6371 H           1 MOL       0.0274
     89 H42        41.2466   -3.8716   17.3173 H           1 MOL       0.0274
     90 H43        40.2552   -4.0001   18.7819 H           1 MOL       0.0274
     91 H44        39.7600    0.3506   17.6745 H           1 MOL       0.0557
     92 H45        38.6299    1.7782   19.2597 H           1 MOL       0.0599
     93 H46        37.2246    0.8128   20.9861 H           1 MOL       0.0559
     94 H47        36.9376   -1.5970   21.1112 H           1 MOL       0.0599
     95 H48        38.0469   -3.0353   19.5267 H           1 MOL       0.0557
@<TRIPOS>BOND
     1     1     2   1
     2     2     3   1
     3     2     4   1
     4     4     5   1
     5     5     6  am
     6     6     7   2
     7     6     8   1
     8     8     9   1
     9     8    12   1
    10     9    10   1
    11     9    11   1
    12    12    13   1
    13    13    14   1
    14    14    15   1
    15    14    22   1
    16    15    16   1
    17    16    17  ar
    18    16    21  ar
    19    17    18  ar
    20    18    19  ar
    21    19    20  ar
    22    20    21  ar
    23    22    23  am
    24    23    24   2
    25    23    25   1
    26    25    26  ar
    27    25    27  ar
    28    26    36  ar
    29    27    28  ar
    30    28    29   1
    31    28    35  ar
    32    29    30   1
    33    29    31  am
    34    31    32   2
    35    31    33   2
    36    31    34   1
    37    35    36  ar
    38    36    37   1
    39    37    38   2
    40    37    39  am
    41    39    40   1
    42    40    41   1
    43    40    42   1
    44    42    43  ar
    45    42    47  ar
    46    43    44  ar
    47    44    45  ar
    48    45    46  ar
    49    46    47  ar
    50     1    48   1
    51     1    49   1
    52     1    50   1
    53     2    51   1
    54     3    52   1
    55     3    53   1
    56     3    54   1
    57     4    55   1
    58     4    56   1
    59     5    57   1
    60     8    58   1
    61     9    59   1
    62    10    60   1
    63    10    61   1
    64    10    62   1
    65    11    63   1
    66    12    64   1
    67    12    65   1
    68    13    66   1
    69    13    67   1
    70    14    68   1
    71    15    69   1
    72    15    70   1
    73    17    71   1
    74    18    72   1
    75    19    73   1
    76    20    74   1
    77    21    75   1
    78    22    76   1
    79    26    77   1
    80    27    78   1
    81    30    79   1
    82    30    80   1
    83    30    81   1
    84    34    82   1
    85    34    83   1
    86    34    84   1
    87    35    85   1
    88    39    86   1
    89    40    87   1
    90    41    88   1
    91    41    89   1
    92    41    90   1
    93    43    91   1
    94    44    92   1
    95    45    93   1
    96    46    94   1
    97    47    95   1
@<TRIPOS>SUBSTRUCTURE
     1  MOL      1

