@<TRIPOS>MOLECULE
4gid_ligand_084
    95    97
SMALL
GAST_HUCK
****
This file was generated by PARSER (from files_GN.cpp)

@<TRIPOS>ATOM
      1 CBK        30.8517   -2.5662    7.1454 C.3         1 MOL      -0.0608
      2 CBL        31.3432   -3.2916    8.4246 C.3         1 MOL      -0.0265
      3 CBM        31.5305   -4.8183    8.1683 C.3         1 MOL      -0.0608
      4 CBN        32.6018   -2.6214    9.0892 C.3         1 MOL       0.0334
      5 NBO        33.8830   -2.9947    8.5986 N.am        1 MOL      -0.2820
      6 CBP        34.2679   -3.1562    7.3332 C.2         1 MOL       0.2271
      7 OBV        33.4779   -2.8089    6.4075 O.2         1 MOL      -0.3908
      8 CBG        35.5573   -3.7889    7.0508 C.3         1 MOL       0.0928
      9 CBH        35.5309   -4.6291    5.7152 C.3         1 MOL       0.1121
     10 CBJ        36.8207   -5.4178    5.4103 C.3         1 MOL      -0.0314
     11 OBI        34.4226   -5.5206    5.6474 O.3         1 MOL      -0.3840
     12 NBF        36.1933   -4.4855    8.2275 N.4         1 MOL       0.2497
     13 CAX        35.5261   -5.6519    8.8735 C.3         1 MOL      -0.0062
     14 CAW        36.4500   -6.2042   10.0073 C.3         1 MOL       0.0906
     15 CAY        36.3388   -7.7571   10.2029 C.3         1 MOL       0.0089
     16 CAZ        37.6642   -8.3969   10.4356 C.ar        1 MOL      -0.0406
     17 CBA        38.0636   -8.8280   11.7221 C.ar        1 MOL      -0.0603
     18 CBB        39.3566   -9.3361   11.9359 C.ar        1 MOL      -0.0686
     19 CBC        40.2548   -9.4386   10.8605 C.ar        1 MOL      -0.0687
     20 CBD        39.8659   -9.0383    9.5707 C.ar        1 MOL      -0.0686
     21 CBE        38.5757   -8.5226    9.3594 C.ar        1 MOL      -0.0603
     22 NAV        36.1815   -5.5309   11.2601 N.am        1 MOL      -0.2761
     23 CAT        36.9472   -5.5429   12.3481 C.2         1 MOL       0.2026
     24 OAU        38.0702   -6.0317   12.3042 O.2         1 MOL      -0.3847
     25 CAP        36.5520   -4.9104   13.5216 C.ar        1 MOL       0.0397
     26 CAQ        35.2893   -5.1468   14.1149 C.ar        1 MOL      -0.0393
     27 CAO        37.4288   -3.9882   14.1391 C.ar        1 MOL      -0.0214
     28 CAN        37.0230   -3.2438   15.2583 C.ar        1 MOL       0.0754
     29 NAE        37.8394   -2.2964   15.7811 N.am        1 MOL      -0.1796
     30 CBT        38.8166   -2.6158   16.7786 C.3         1 MOL       0.0445
     31 SAB        37.7051   -0.7141   15.2095 S.o2        1 MOL       0.0593
     32 OAC        39.0907   -0.2802   14.5596 O.2         1 MOL      -0.1500
     33 OAD        36.6518   -0.6422   14.0168 O.2         1 MOL      -0.1500
     34 CAA        37.1379    0.4531   16.4577 C.3         1 MOL       0.0790
     35 CAS        35.7324   -3.4298   15.7840 C.ar        1 MOL      -0.0214
     36 CAR        34.8551   -4.3927   15.2395 C.ar        1 MOL       0.0398
     37 CAL        33.5954   -4.5631   15.8010 C.2         1 MOL       0.2041
     38 OAM        32.9712   -3.5604   16.1471 O.2         1 MOL      -0.3845
     39 NBQ        33.1486   -5.7667   16.1367 N.am        1 MOL      -0.2723
     40 CBR        31.9559   -6.0651   16.8935 C.3         1 MOL       0.0723
     41 CBS        32.3819   -6.3274   18.3661 C.3         1 MOL      -0.0320
     42 CAI        31.1716   -7.1072   16.1566 C.ar        1 MOL      -0.0183
     43 CAH        30.6055   -6.7448   14.9034 C.ar        1 MOL      -0.0582
     44 CAG        29.8325   -7.6521   14.1629 C.ar        1 MOL      -0.0685
     45 CAF        29.6292   -8.9613   14.6367 C.ar        1 MOL      -0.0687
     46 CAK        30.1800   -9.3446   15.8705 C.ar        1 MOL      -0.0685
     47 CAJ        30.9346   -8.4294   16.6239 C.ar        1 MOL      -0.0582
     48 H1         29.8983   -3.0392    6.8013 H           1 MOL       0.0233
     49 H2         31.6731   -2.6374    6.3986 H           1 MOL       0.0233
     50 H3         30.6386   -1.5107    7.4063 H           1 MOL       0.0233
     51 H4         30.5305   -3.1880    9.1515 H           1 MOL       0.0315
     52 H5         31.8719   -5.3266    9.0747 H           1 MOL       0.0233
     53 H6         32.2530   -5.0048    7.3759 H           1 MOL       0.0233
     54 H7         30.5794   -5.2575    7.8661 H           1 MOL       0.0233
     55 H8         32.5831   -2.9163   10.1404 H           1 MOL       0.0522
     56 H9         32.5172   -1.5352    9.0792 H           1 MOL       0.0522
     57 H10        34.5367   -3.1725    9.3151 H           1 MOL       0.1853
     58 H11        36.2139   -2.9288    6.8759 H           1 MOL       0.1125
     59 H12        35.3917   -3.9318    4.8865 H           1 MOL       0.0674
     60 H13        36.7452   -5.8858    4.4266 H           1 MOL       0.0258
     61 H14        36.9714   -6.1948    6.1505 H           1 MOL       0.0258
     62 H15        37.6760   -4.7442    5.4149 H           1 MOL       0.0258
     63 H16        33.6240   -4.9511    5.6889 H           1 MOL       0.2102
     64 H17        36.3447   -3.7754    8.9510 H           1 MOL       0.2037
     65 H18        37.1083   -4.7931    7.9076 H           1 MOL       0.2037
     66 H19        35.3532   -6.4096    8.1026 H           1 MOL       0.0839
     67 H20        34.5548   -5.3760    9.2888 H           1 MOL       0.0839
     68 H21        37.4795   -5.9606    9.7064 H           1 MOL       0.0632
     69 H22        35.8925   -8.2425    9.3308 H           1 MOL       0.0450
     70 H23        35.6529   -7.9692   11.0273 H           1 MOL       0.0450
     71 H24        37.4322   -8.7291   12.5179 H           1 MOL       0.0557
     72 H25        39.6419   -9.6251   12.8731 H           1 MOL       0.0599
     73 H26        41.1922   -9.7996   11.0173 H           1 MOL       0.0559
     74 H27        40.5162   -9.1239    8.7863 H           1 MOL       0.0599
     75 H28        38.3040   -8.2303    8.4150 H           1 MOL       0.0557
     76 H29        35.3443   -5.0391   11.3263 H           1 MOL       0.1852
     77 H30        34.6631   -5.8454   13.7041 H           1 MOL       0.0576
     78 H31        38.3573   -3.8146   13.7469 H           1 MOL       0.0566
     79 H32        38.8255   -3.6808   17.0252 H           1 MOL       0.0517
     80 H33        38.6009   -2.0603   17.6927 H           1 MOL       0.0517
     81 H34        39.8157   -2.3445   16.4302 H           1 MOL       0.0517
     82 H35        37.0020    1.4353   16.0067 H           1 MOL       0.0487
     83 H36        37.8758    0.5166   17.2567 H           1 MOL       0.0487
     84 H37        36.1885    0.1117   16.8703 H           1 MOL       0.0487
     85 H38        35.4452   -2.8612   16.5908 H           1 MOL       0.0566
     86 H39        33.7064   -6.5273   15.8973 H           1 MOL       0.1875
     87 H40        31.2894   -5.1960   16.9529 H           1 MOL       0.0716
     88 H41        31.5146   -6.6167   18.9583 H           1 MOL       0.0274
     89 H42        32.8022   -5.4137   18.8128 H           1 MOL       0.0274
     90 H43        33.1359   -7.1139   18.4226 H           1 MOL       0.0274
     91 H44        30.7443   -5.7961   14.5348 H           1 MOL       0.0557
     92 H45        29.4194   -7.3703   13.2730 H           1 MOL       0.0599
     93 H46        29.0705   -9.6228   14.0952 H           1 MOL       0.0559
     94 H47        30.0369  -10.2954   16.2201 H           1 MOL       0.0599
     95 H48        31.3194   -8.7561   17.5110 H           1 MOL       0.0557
@<TRIPOS>BOND
     1     1     2   1
     2     2     3   1
     3     2     4   1
     4     4     5   1
     5     5     6  am
     6     6     7   2
     7     6     8   1
     8     8     9   1
     9     8    12   1
    10     9    10   1
    11     9    11   1
    12    12    13   1
    13    13    14   1
    14    14    15   1
    15    14    22   1
    16    15    16   1
    17    16    17  ar
    18    16    21  ar
    19    17    18  ar
    20    18    19  ar
    21    19    20  ar
    22    20    21  ar
    23    22    23  am
    24    23    24   2
    25    23    25   1
    26    25    26  ar
    27    25    27  ar
    28    26    36  ar
    29    27    28  ar
    30    28    29   1
    31    28    35  ar
    32    29    30   1
    33    29    31  am
    34    31    32   2
    35    31    33   2
    36    31    34   1
    37    35    36  ar
    38    36    37   1
    39    37    38   2
    40    37    39  am
    41    39    40   1
    42    40    41   1
    43    40    42   1
    44    42    43  ar
    45    42    47  ar
    46    43    44  ar
    47    44    45  ar
    48    45    46  ar
    49    46    47  ar
    50     1    48   1
    51     1    49   1
    52     1    50   1
    53     2    51   1
    54     3    52   1
    55     3    53   1
    56     3    54   1
    57     4    55   1
    58     4    56   1
    59     5    57   1
    60     8    58   1
    61     9    59   1
    62    10    60   1
    63    10    61   1
    64    10    62   1
    65    11    63   1
    66    12    64   1
    67    12    65   1
    68    13    66   1
    69    13    67   1
    70    14    68   1
    71    15    69   1
    72    15    70   1
    73    17    71   1
    74    18    72   1
    75    19    73   1
    76    20    74   1
    77    21    75   1
    78    22    76   1
    79    26    77   1
    80    27    78   1
    81    30    79   1
    82    30    80   1
    83    30    81   1
    84    34    82   1
    85    34    83   1
    86    34    84   1
    87    35    85   1
    88    39    86   1
    89    40    87   1
    90    41    88   1
    91    41    89   1
    92    41    90   1
    93    43    91   1
    94    44    92   1
    95    45    93   1
    96    46    94   1
    97    47    95   1
@<TRIPOS>SUBSTRUCTURE
     1  MOL      1

