@<TRIPOS>MOLECULE
4gid_ligand_058
    95    97
SMALL
GAST_HUCK
****
This file was generated by PARSER (from files_GN.cpp)

@<TRIPOS>ATOM
      1 CBK        40.7287   -0.9027   14.3230 C.3         1 MOL      -0.0608
      2 CBL        40.4534   -2.4232   14.4789 C.3         1 MOL      -0.0265
      3 CBM        39.0175   -2.6445   15.0466 C.3         1 MOL      -0.0608
      4 CBN        40.6650   -3.2249   13.1527 C.3         1 MOL       0.0334
      5 NBO        41.4606   -2.5237   12.1886 N.am        1 MOL      -0.2820
      6 CBP        42.7414   -2.7156   11.8907 C.2         1 MOL       0.2271
      7 OBV        43.3972   -3.5686   12.4849 O.2         1 MOL      -0.3908
      8 CBG        43.3964   -1.7555   11.0103 C.3         1 MOL       0.0928
      9 CBH        44.7418   -2.2481   10.3873 C.3         1 MOL       0.1121
     10 CBJ        44.5494   -3.2970    9.2676 C.3         1 MOL      -0.0314
     11 OBI        45.4330   -1.1302    9.8192 O.3         1 MOL      -0.3840
     12 NBF        43.4188   -0.5018   11.8233 N.4         1 MOL       0.2497
     13 CAX        44.2307    0.6912   11.4460 C.3         1 MOL      -0.0062
     14 CAW        45.5061    0.7830   12.3271 C.3         1 MOL       0.0906
     15 CAY        46.2358    2.1493   12.1661 C.3         1 MOL       0.0089
     16 CAZ        47.5451    2.1856   12.8826 C.ar        1 MOL      -0.0406
     17 CBA        47.6261    1.9121   14.2669 C.ar        1 MOL      -0.0603
     18 CBB        48.8706    1.8340   14.9217 C.ar        1 MOL      -0.0686
     19 CBC        50.0589    2.0282   14.1972 C.ar        1 MOL      -0.0687
     20 CBD        50.0005    2.3071   12.8200 C.ar        1 MOL      -0.0686
     21 CBE        48.7521    2.3886   12.1735 C.ar        1 MOL      -0.0603
     22 NAV        46.4228   -0.2819   12.0032 N.am        1 MOL      -0.2761
     23 CAT        47.0968   -1.0414   12.8586 C.2         1 MOL       0.2026
     24 OAU        46.8411   -0.9856   14.0555 O.2         1 MOL      -0.3847
     25 CAP        48.1913   -1.8039   12.4390 C.ar        1 MOL       0.0397
     26 CAQ        49.2624   -2.0552   13.3277 C.ar        1 MOL      -0.0393
     27 CAO        48.2977   -2.2989   11.1181 C.ar        1 MOL      -0.0214
     28 CAN        49.4367   -2.9958   10.6639 C.ar        1 MOL       0.0754
     29 NAE        49.5123   -3.5036    9.3874 N.am        1 MOL      -0.1796
     30 CBT        49.5863   -2.6505    8.2352 C.3         1 MOL       0.0445
     31 SAB        49.4845   -5.1745    9.1530 S.o2        1 MOL       0.0593
     32 OAC        50.9385   -5.8083    9.3553 O.2         1 MOL      -0.1500
     33 OAD        48.5409   -5.8312   10.2583 O.2         1 MOL      -0.1500
     34 CAA        48.7892   -5.7357    7.5924 C.3         1 MOL       0.0790
     35 CAS        50.5157   -3.1608   11.5562 C.ar        1 MOL      -0.0214
     36 CAR        50.4392   -2.7082   12.8972 C.ar        1 MOL       0.0398
     37 CAL        51.5174   -2.8809   13.7582 C.2         1 MOL       0.2041
     38 OAM        52.4904   -2.1366   13.6205 O.2         1 MOL      -0.3845
     39 NBQ        51.4813   -3.7657   14.7523 N.am        1 MOL      -0.2723
     40 CBR        52.5874   -4.1581   15.5855 C.3         1 MOL       0.0723
     41 CBS        52.0693   -4.8965   16.8411 C.3         1 MOL      -0.0320
     42 CAI        53.4795   -3.0107   15.9594 C.ar        1 MOL      -0.0183
     43 CAH        52.9846   -1.9090   16.6942 C.ar        1 MOL      -0.0582
     44 CAG        53.8299   -0.8465   17.0569 C.ar        1 MOL      -0.0685
     45 CAF        55.1876   -0.8681   16.6895 C.ar        1 MOL      -0.0687
     46 CAK        55.6882   -1.9365   15.9249 C.ar        1 MOL      -0.0685
     47 CAJ        54.8404   -2.9996   15.5612 C.ar        1 MOL      -0.0582
     48 H1         40.5142   -0.3702   15.2561 H           1 MOL       0.0233
     49 H2         40.1103   -0.4749   13.5196 H           1 MOL       0.0233
     50 H3         41.7871   -0.7345   14.0787 H           1 MOL       0.0233
     51 H4         41.1568   -2.8182   15.2216 H           1 MOL       0.0315
     52 H5         38.8110   -3.7153   15.1571 H           1 MOL       0.0233
     53 H6         38.2691   -2.2110   14.3672 H           1 MOL       0.0233
     54 H7         38.9261   -2.1719   16.0286 H           1 MOL       0.0233
     55 H8         39.6878   -3.4144   12.6831 H           1 MOL       0.0522
     56 H9         41.1123   -4.2035   13.3834 H           1 MOL       0.0522
     57 H10        41.0244   -1.7688   11.7759 H           1 MOL       0.1853
     58 H11        42.7218   -1.5402   10.1732 H           1 MOL       0.1125
     59 H12        45.3703   -2.6708   11.1788 H           1 MOL       0.0674
     60 H13        45.5256   -3.6197    8.9015 H           1 MOL       0.0258
     61 H14        43.9838   -2.8681    8.4321 H           1 MOL       0.0258
     62 H15        44.0173   -4.1774    9.6474 H           1 MOL       0.0258
     63 H16        45.6240   -1.3448    8.8720 H           1 MOL       0.2102
     64 H17        43.6555   -0.7354   12.8001 H           1 MOL       0.2037
     65 H18        42.4455   -0.1538   11.8336 H           1 MOL       0.2037
     66 H19        43.6176    1.5761   11.6370 H           1 MOL       0.0839
     67 H20        44.4780    0.7158   10.3868 H           1 MOL       0.0839
     68 H21        45.1737    0.7247   13.3705 H           1 MOL       0.0632
     69 H22        45.6158    2.9534   12.5536 H           1 MOL       0.0450
     70 H23        46.3818    2.3485   11.1001 H           1 MOL       0.0450
     71 H24        46.7766    1.7389   14.8080 H           1 MOL       0.0557
     72 H25        48.9127    1.6233   15.9233 H           1 MOL       0.0599
     73 H26        50.9653    1.9709   14.6702 H           1 MOL       0.0559
     74 H27        50.8667    2.4515   12.2847 H           1 MOL       0.0599
     75 H28        48.7321    2.5961   11.1726 H           1 MOL       0.0557
     76 H29        46.6674   -0.3432   11.0639 H           1 MOL       0.1852
     77 H30        49.2315   -1.7015   14.2870 H           1 MOL       0.0576
     78 H31        47.5213   -2.1708   10.4656 H           1 MOL       0.0566
     79 H32        49.6827   -1.5942    8.4939 H           1 MOL       0.0517
     80 H33        48.6846   -2.7639    7.6323 H           1 MOL       0.0517
     81 H34        50.4515   -2.9143    7.6261 H           1 MOL       0.0517
     82 H35        48.8044   -6.8280    7.5417 H           1 MOL       0.0487
     83 H36        49.3757   -5.3326    6.7638 H           1 MOL       0.0487
     84 H37        47.7579   -5.3887    7.5098 H           1 MOL       0.0487
     85 H38        51.3694   -3.6326   11.2340 H           1 MOL       0.0566
     86 H39        50.6597   -4.2866   14.8403 H           1 MOL       0.1875
     87 H40        53.1543   -4.8960   15.0070 H           1 MOL       0.0716
     88 H41        52.9116   -5.2332   17.4478 H           1 MOL       0.0274
     89 H42        51.4849   -5.7674   16.5470 H           1 MOL       0.0274
     90 H43        51.4374   -4.2434   17.4482 H           1 MOL       0.0274
     91 H44        51.9985   -1.8680   16.9637 H           1 MOL       0.0557
     92 H45        53.4642   -0.0621   17.6039 H           1 MOL       0.0599
     93 H46        55.8072   -0.1009   16.9630 H           1 MOL       0.0559
     94 H47        56.6707   -1.9469   15.6422 H           1 MOL       0.0599
     95 H48        55.2269   -3.7658   15.0034 H           1 MOL       0.0557
@<TRIPOS>BOND
     1     1     2   1
     2     2     3   1
     3     2     4   1
     4     4     5   1
     5     5     6  am
     6     6     7   2
     7     6     8   1
     8     8     9   1
     9     8    12   1
    10     9    10   1
    11     9    11   1
    12    12    13   1
    13    13    14   1
    14    14    15   1
    15    14    22   1
    16    15    16   1
    17    16    17  ar
    18    16    21  ar
    19    17    18  ar
    20    18    19  ar
    21    19    20  ar
    22    20    21  ar
    23    22    23  am
    24    23    24   2
    25    23    25   1
    26    25    26  ar
    27    25    27  ar
    28    26    36  ar
    29    27    28  ar
    30    28    29   1
    31    28    35  ar
    32    29    30   1
    33    29    31  am
    34    31    32   2
    35    31    33   2
    36    31    34   1
    37    35    36  ar
    38    36    37   1
    39    37    38   2
    40    37    39  am
    41    39    40   1
    42    40    41   1
    43    40    42   1
    44    42    43  ar
    45    42    47  ar
    46    43    44  ar
    47    44    45  ar
    48    45    46  ar
    49    46    47  ar
    50     1    48   1
    51     1    49   1
    52     1    50   1
    53     2    51   1
    54     3    52   1
    55     3    53   1
    56     3    54   1
    57     4    55   1
    58     4    56   1
    59     5    57   1
    60     8    58   1
    61     9    59   1
    62    10    60   1
    63    10    61   1
    64    10    62   1
    65    11    63   1
    66    12    64   1
    67    12    65   1
    68    13    66   1
    69    13    67   1
    70    14    68   1
    71    15    69   1
    72    15    70   1
    73    17    71   1
    74    18    72   1
    75    19    73   1
    76    20    74   1
    77    21    75   1
    78    22    76   1
    79    26    77   1
    80    27    78   1
    81    30    79   1
    82    30    80   1
    83    30    81   1
    84    34    82   1
    85    34    83   1
    86    34    84   1
    87    35    85   1
    88    39    86   1
    89    40    87   1
    90    41    88   1
    91    41    89   1
    92    41    90   1
    93    43    91   1
    94    44    92   1
    95    45    93   1
    96    46    94   1
    97    47    95   1
@<TRIPOS>SUBSTRUCTURE
     1  MOL      1

