@<TRIPOS>MOLECULE
4gid_ligand_054
    95    97
SMALL
GAST_HUCK
****
This file was generated by PARSER (from files_GN.cpp)

@<TRIPOS>ATOM
      1 CBK        38.5353   -2.2427   13.4996 C.3         1 MOL      -0.0608
      2 CBL        39.9680   -2.6311   13.9639 C.3         1 MOL      -0.0265
      3 CBM        39.9998   -2.8179   15.5100 C.3         1 MOL      -0.0608
      4 CBN        40.4925   -3.9055   13.2428 C.3         1 MOL       0.0334
      5 NBO        40.8750   -3.6772   11.8850 N.am        1 MOL      -0.2820
      6 CBP        42.1162   -3.5909   11.4103 C.2         1 MOL       0.2271
      7 OBV        43.0781   -3.6151   12.1710 O.2         1 MOL      -0.3908
      8 CBG        42.3415   -3.5528    9.9509 C.3         1 MOL       0.0928
      9 CBH        42.5650   -4.9631    9.2990 C.3         1 MOL       0.1121
     10 CBJ        42.3952   -6.2205   10.2060 C.3         1 MOL      -0.0314
     11 OBI        41.6729   -5.0988    8.1852 O.3         1 MOL      -0.3840
     12 NBF        43.4305   -2.5995    9.5323 N.4         1 MOL       0.2497
     13 CAX        44.7390   -2.6018   10.2293 C.3         1 MOL      -0.0062
     14 CAW        44.9469   -1.3304   11.1201 C.3         1 MOL       0.0906
     15 CAY        45.1561   -0.0488   10.2599 C.3         1 MOL       0.0089
     16 CAZ        45.6519    1.1011   11.0674 C.ar        1 MOL      -0.0406
     17 CBA        44.7708    2.0958   11.5476 C.ar        1 MOL      -0.0603
     18 CBB        45.2527    3.1464   12.3479 C.ar        1 MOL      -0.0686
     19 CBC        46.6125    3.1981   12.7041 C.ar        1 MOL      -0.0687
     20 CBD        47.4955    2.2137   12.2314 C.ar        1 MOL      -0.0686
     21 CBE        47.0143    1.1736   11.4265 C.ar        1 MOL      -0.0603
     22 NAV        45.9543   -1.4961   12.1277 N.am        1 MOL      -0.2761
     23 CAT        47.2183   -1.8911   11.9985 C.2         1 MOL       0.2026
     24 OAU        47.6036   -2.3114   10.9177 O.2         1 MOL      -0.3847
     25 CAP        48.1135   -1.8424   13.0758 C.ar        1 MOL       0.0397
     26 CAQ        49.2331   -2.7172   13.1443 C.ar        1 MOL      -0.0393
     27 CAO        47.9499   -0.9033   14.1249 C.ar        1 MOL      -0.0214
     28 CAN        48.8641   -0.8298   15.1947 C.ar        1 MOL       0.0754
     29 NAE        48.7503    0.1358   16.1532 N.am        1 MOL      -0.1796
     30 CBT        49.6934    1.2201   16.2242 C.3         1 MOL       0.0445
     31 SAB        47.6103   -0.0791   17.3851 S.o2        1 MOL       0.0593
     32 OAC        47.6085    1.1621   18.3823 O.2         1 MOL      -0.1500
     33 OAD        46.1482   -0.1120   16.7606 O.2         1 MOL      -0.1500
     34 CAA        47.8884   -1.5543   18.3804 C.3         1 MOL       0.0790
     35 CAS        49.9317   -1.7441   15.2491 C.ar        1 MOL      -0.0214
     36 CAR        50.1447   -2.7080   14.2369 C.ar        1 MOL       0.0398
     37 CAL        51.2498   -3.5794   14.2905 C.2         1 MOL       0.2041
     38 OAM        51.6422   -4.1182   13.2652 O.2         1 MOL      -0.3845
     39 NBQ        51.8941   -3.8363   15.4322 N.am        1 MOL      -0.2723
     40 CBR        53.0662   -4.6511   15.6460 C.3         1 MOL       0.0723
     41 CBS        52.8177   -5.5655   16.8751 C.3         1 MOL      -0.0320
     42 CAI        54.3211   -3.8518   15.8302 C.ar        1 MOL      -0.0183
     43 CAH        54.3158   -2.5318   16.3485 C.ar        1 MOL      -0.0582
     44 CAG        55.5162   -1.8124   16.4925 C.ar        1 MOL      -0.0685
     45 CAF        56.7407   -2.4011   16.1307 C.ar        1 MOL      -0.0687
     46 CAK        56.7653   -3.7146   15.6368 C.ar        1 MOL      -0.0685
     47 CAJ        55.5677   -4.4326   15.4919 C.ar        1 MOL      -0.0582
     48 H1         38.2314   -1.3063   13.9678 H           1 MOL       0.0233
     49 H2         37.8130   -3.0212   13.7664 H           1 MOL       0.0233
     50 H3         38.5186   -2.1085   12.4125 H           1 MOL       0.0233
     51 H4         40.6457   -1.8104   13.7116 H           1 MOL       0.0315
     52 H5         41.0189   -3.0450   15.8379 H           1 MOL       0.0233
     53 H6         39.3386   -3.6318   15.8152 H           1 MOL       0.0233
     54 H7         39.6836   -1.9003   16.0043 H           1 MOL       0.0233
     55 H8         39.7012   -4.6624   13.2263 H           1 MOL       0.0522
     56 H9         41.3384   -4.3274   13.8023 H           1 MOL       0.0522
     57 H10        40.1642   -3.5958   11.2343 H           1 MOL       0.1853
     58 H11        41.4348   -3.1419    9.4902 H           1 MOL       0.1125
     59 H12        43.5811   -5.0240    8.8783 H           1 MOL       0.0674
     60 H13        42.5662   -7.1315    9.6340 H           1 MOL       0.0258
     61 H14        41.3891   -6.2502   10.6317 H           1 MOL       0.0258
     62 H15        43.1211   -6.2057   11.0197 H           1 MOL       0.0258
     63 H16        40.7740   -4.9717    8.5624 H           1 MOL       0.2102
     64 H17        43.0399   -1.6504    9.5737 H           1 MOL       0.2037
     65 H18        43.6123   -2.8045    8.5454 H           1 MOL       0.2037
     66 H19        45.5294   -2.6552    9.4684 H           1 MOL       0.0839
     67 H20        44.8492   -3.5152   10.8439 H           1 MOL       0.0839
     68 H21        44.0179   -1.2035   11.6827 H           1 MOL       0.0632
     69 H22        44.2122    0.2319    9.7876 H           1 MOL       0.0450
     70 H23        45.8552   -0.2676    9.4475 H           1 MOL       0.0450
     71 H24        43.7737    2.0694   11.3026 H           1 MOL       0.0557
     72 H25        44.6119    3.8586   12.7000 H           1 MOL       0.0599
     73 H26        46.9596    3.9528   13.3051 H           1 MOL       0.0559
     74 H27        48.4844    2.2392   12.4895 H           1 MOL       0.0599
     75 H28        47.6680    0.4545   11.1110 H           1 MOL       0.0557
     76 H29        45.6754   -1.2026   13.0085 H           1 MOL       0.1852
     77 H30        49.3814   -3.3919   12.3931 H           1 MOL       0.0576
     78 H31        47.1910   -0.2234   14.0861 H           1 MOL       0.0566
     79 H32        50.4389    1.1906   15.4218 H           1 MOL       0.0517
     80 H33        50.2288    1.1913   17.1755 H           1 MOL       0.0517
     81 H34        49.1644    2.1696   16.1419 H           1 MOL       0.0517
     82 H35        47.1456   -1.6061   19.1766 H           1 MOL       0.0487
     83 H36        48.8866   -1.5252   18.8192 H           1 MOL       0.0487
     84 H37        47.8000   -2.4410   17.7518 H           1 MOL       0.0487
     85 H38        50.5694   -1.6773   16.0478 H           1 MOL       0.0566
     86 H39        51.5577   -3.4109   16.2329 H           1 MOL       0.1875
     87 H40        53.2042   -5.3125   14.7872 H           1 MOL       0.0716
     88 H41        53.6642   -6.2397   17.0390 H           1 MOL       0.0274
     89 H42        51.9205   -6.1733   16.7260 H           1 MOL       0.0274
     90 H43        52.6804   -4.9607   17.7740 H           1 MOL       0.0274
     91 H44        53.4356   -2.0886   16.6271 H           1 MOL       0.0557
     92 H45        55.4998   -0.8602   16.8597 H           1 MOL       0.0599
     93 H46        57.6126   -1.8799   16.2296 H           1 MOL       0.0559
     94 H47        57.6522   -4.1516   15.3882 H           1 MOL       0.0599
     95 H48        55.6095   -5.3929   15.1367 H           1 MOL       0.0557
@<TRIPOS>BOND
     1     1     2   1
     2     2     3   1
     3     2     4   1
     4     4     5   1
     5     5     6  am
     6     6     7   2
     7     6     8   1
     8     8     9   1
     9     8    12   1
    10     9    10   1
    11     9    11   1
    12    12    13   1
    13    13    14   1
    14    14    15   1
    15    14    22   1
    16    15    16   1
    17    16    17  ar
    18    16    21  ar
    19    17    18  ar
    20    18    19  ar
    21    19    20  ar
    22    20    21  ar
    23    22    23  am
    24    23    24   2
    25    23    25   1
    26    25    26  ar
    27    25    27  ar
    28    26    36  ar
    29    27    28  ar
    30    28    29   1
    31    28    35  ar
    32    29    30   1
    33    29    31  am
    34    31    32   2
    35    31    33   2
    36    31    34   1
    37    35    36  ar
    38    36    37   1
    39    37    38   2
    40    37    39  am
    41    39    40   1
    42    40    41   1
    43    40    42   1
    44    42    43  ar
    45    42    47  ar
    46    43    44  ar
    47    44    45  ar
    48    45    46  ar
    49    46    47  ar
    50     1    48   1
    51     1    49   1
    52     1    50   1
    53     2    51   1
    54     3    52   1
    55     3    53   1
    56     3    54   1
    57     4    55   1
    58     4    56   1
    59     5    57   1
    60     8    58   1
    61     9    59   1
    62    10    60   1
    63    10    61   1
    64    10    62   1
    65    11    63   1
    66    12    64   1
    67    12    65   1
    68    13    66   1
    69    13    67   1
    70    14    68   1
    71    15    69   1
    72    15    70   1
    73    17    71   1
    74    18    72   1
    75    19    73   1
    76    20    74   1
    77    21    75   1
    78    22    76   1
    79    26    77   1
    80    27    78   1
    81    30    79   1
    82    30    80   1
    83    30    81   1
    84    34    82   1
    85    34    83   1
    86    34    84   1
    87    35    85   1
    88    39    86   1
    89    40    87   1
    90    41    88   1
    91    41    89   1
    92    41    90   1
    93    43    91   1
    94    44    92   1
    95    45    93   1
    96    46    94   1
    97    47    95   1
@<TRIPOS>SUBSTRUCTURE
     1  MOL      1

