@<TRIPOS>MOLECULE
4gid_ligand_043
    95    97
SMALL
GAST_HUCK
****
This file was generated by PARSER (from files_GN.cpp)

@<TRIPOS>ATOM
      1 CBK        45.4518    0.5924   12.0704 C.3         1 MOL      -0.0608
      2 CBL        43.9022    0.6580   12.0304 C.3         1 MOL      -0.0265
      3 CBM        43.4113    1.6333   10.9285 C.3         1 MOL      -0.0608
      4 CBN        43.2345   -0.7500   11.9210 C.3         1 MOL       0.0334
      5 NBO        43.6504   -1.5287   10.7824 N.am        1 MOL      -0.2820
      6 CBP        44.4574   -2.5858   10.7852 C.2         1 MOL       0.2271
      7 OBV        45.1113   -2.8470   11.7808 O.2         1 MOL      -0.3908
      8 CBG        44.7284   -3.3528    9.5816 C.3         1 MOL       0.0928
      9 CBH        46.1510   -3.0708    8.9826 C.3         1 MOL       0.1121
     10 CBJ        46.8423   -1.7295    9.3706 C.3         1 MOL      -0.0314
     11 OBI        47.0459   -4.1351    9.3343 O.3         1 MOL      -0.3840
     12 NBF        43.6685   -3.2749    8.5251 N.4         1 MOL       0.2497
     13 CAX        42.2541   -3.7121    8.7793 C.3         1 MOL      -0.0062
     14 CAW        41.9912   -5.0015    9.6378 C.3         1 MOL       0.0906
     15 CAY        41.4242   -6.2205    8.8346 C.3         1 MOL       0.0089
     16 CAZ        40.8002   -7.2763    9.7000 C.ar        1 MOL      -0.0406
     17 CBA        41.5627   -7.9084   10.7130 C.ar        1 MOL      -0.0603
     18 CBB        40.9638   -8.8136   11.6102 C.ar        1 MOL      -0.0686
     19 CBC        39.5952   -9.1092   11.5024 C.ar        1 MOL      -0.0687
     20 CBD        38.8278   -8.5232   10.4802 C.ar        1 MOL      -0.0686
     21 CBE        39.4238   -7.6078    9.5914 C.ar        1 MOL      -0.0603
     22 NAV        41.0539   -4.6625   10.6759 N.am        1 MOL      -0.2761
     23 CAT        41.2941   -4.5275   11.9736 C.2         1 MOL       0.2026
     24 OAU        42.4497   -4.6202   12.3908 O.2         1 MOL      -0.3847
     25 CAP        40.2537   -4.2332   12.8602 C.ar        1 MOL       0.0397
     26 CAQ        38.9226   -4.6874   12.6496 C.ar        1 MOL      -0.0393
     27 CAO        40.5186   -3.4959   14.0405 C.ar        1 MOL      -0.0214
     28 CAN        39.5137   -3.2360   14.9925 C.ar        1 MOL       0.0754
     29 NAE        39.8066   -2.5398   16.1215 N.am        1 MOL      -0.1796
     30 CBT        40.3384   -3.1876   17.2848 C.3         1 MOL       0.0445
     31 SAB        39.5624   -0.8727   16.1011 S.o2        1 MOL       0.0593
     32 OAC        40.0795   -0.2401   17.4654 O.2         1 MOL      -0.1500
     33 OAD        40.5061   -0.2363   14.9905 O.2         1 MOL      -0.1500
     34 CAA        37.8552   -0.3912   15.8138 C.3         1 MOL       0.0790
     35 CAS        38.2111   -3.7181   14.7651 C.ar        1 MOL      -0.0214
     36 CAR        37.8996   -4.4695   13.6104 C.ar        1 MOL       0.0398
     37 CAL        36.6364   -5.0557   13.4565 C.2         1 MOL       0.2041
     38 OAM        36.1695   -5.2404   12.3359 O.2         1 MOL      -0.3845
     39 NBQ        35.9820   -5.4592   14.5446 N.am        1 MOL      -0.2723
     40 CBR        34.6553   -5.9839   14.6916 C.3         1 MOL       0.0723
     41 CBS        34.3125   -7.0301   13.5929 C.3         1 MOL      -0.0320
     42 CAI        33.7074   -4.8485   14.9198 C.ar        1 MOL      -0.0183
     43 CAH        32.4398   -4.7448   14.2918 C.ar        1 MOL      -0.0582
     44 CAG        31.6335   -3.6079   14.4788 C.ar        1 MOL      -0.0685
     45 CAF        32.0654   -2.5560   15.3038 C.ar        1 MOL      -0.0687
     46 CAK        33.2953   -2.6550   15.9710 C.ar        1 MOL      -0.0685
     47 CAJ        34.0951   -3.7983   15.7956 C.ar        1 MOL      -0.0582
     48 H1         45.8586    1.5778   12.3078 H           1 MOL       0.0233
     49 H2         45.8469    0.2746   11.1009 H           1 MOL       0.0233
     50 H3         45.7888   -0.1110   12.8357 H           1 MOL       0.0233
     51 H4         43.5807    1.0733   12.9932 H           1 MOL       0.0315
     52 H5         42.3213    1.6681   10.9168 H           1 MOL       0.0233
     53 H6         43.7646    1.3150    9.9454 H           1 MOL       0.0233
     54 H7         43.7858    2.6370   11.1263 H           1 MOL       0.0233
     55 H8         42.1492   -0.6124   11.8224 H           1 MOL       0.0522
     56 H9         43.3851   -1.2929   12.8583 H           1 MOL       0.0522
     57 H10        43.2326   -1.2820    9.9438 H           1 MOL       0.1853
     58 H11        44.7394   -4.3992    9.8667 H           1 MOL       0.1125
     59 H12        46.0713   -3.0972    7.8810 H           1 MOL       0.0674
     60 H13        47.7496   -1.5833    8.7712 H           1 MOL       0.0258
     61 H14        47.1377   -1.7554   10.4207 H           1 MOL       0.0258
     62 H15        46.1692   -0.8852    9.2017 H           1 MOL       0.0258
     63 H16        47.7806   -4.0778    8.6752 H           1 MOL       0.2102
     64 H17        43.9978   -3.7894    7.6831 H           1 MOL       0.2037
     65 H18        43.6008   -2.2812    8.2424 H           1 MOL       0.2037
     66 H19        41.7928   -3.8306    7.7874 H           1 MOL       0.0839
     67 H20        41.7442   -2.8465    9.2298 H           1 MOL       0.0839
     68 H21        42.9366   -5.3366   10.0641 H           1 MOL       0.0632
     69 H22        42.2343   -6.6823    8.2591 H           1 MOL       0.0450
     70 H23        40.6845   -5.8521    8.1105 H           1 MOL       0.0450
     71 H24        42.5593   -7.6986   10.8154 H           1 MOL       0.0557
     72 H25        41.5199   -9.2345   12.3563 H           1 MOL       0.0599
     73 H26        39.1567   -9.7506   12.1665 H           1 MOL       0.0559
     74 H27        37.8334   -8.7409   10.4020 H           1 MOL       0.0599
     75 H28        38.8415   -7.1727    8.8683 H           1 MOL       0.0557
     76 H29        40.1397   -4.5106   10.3646 H           1 MOL       0.1852
     77 H30        38.7063   -5.2638   11.8249 H           1 MOL       0.0576
     78 H31        41.4652   -3.1362   14.2188 H           1 MOL       0.0566
     79 H32        40.3530   -4.2786   17.1910 H           1 MOL       0.0517
     80 H33        39.7363   -2.9412   18.1620 H           1 MOL       0.0517
     81 H34        41.3635   -2.8546   17.4586 H           1 MOL       0.0517
     82 H35        37.7647    0.6939   15.8150 H           1 MOL       0.0487
     83 H36        37.2235   -0.8035   16.5995 H           1 MOL       0.0487
     84 H37        37.5222   -0.7726   14.8501 H           1 MOL       0.0487
     85 H38        37.4954   -3.5342   15.4668 H           1 MOL       0.0566
     86 H39        36.4492   -5.3280   15.3855 H           1 MOL       0.1875
     87 H40        34.6661   -6.5411   15.6293 H           1 MOL       0.0716
     88 H41        33.3683   -7.5265   13.8285 H           1 MOL       0.0274
     89 H42        35.0932   -7.7931   13.5432 H           1 MOL       0.0274
     90 H43        34.2238   -6.5602   12.6106 H           1 MOL       0.0274
     91 H44        32.0985   -5.4824   13.6690 H           1 MOL       0.0557
     92 H45        30.7443   -3.5414   13.9801 H           1 MOL       0.0599
     93 H46        31.4945   -1.7209   15.4134 H           1 MOL       0.0559
     94 H47        33.6116   -1.8972   16.5816 H           1 MOL       0.0599
     95 H48        34.9895   -3.8434   16.2940 H           1 MOL       0.0557
@<TRIPOS>BOND
     1     1     2   1
     2     2     3   1
     3     2     4   1
     4     4     5   1
     5     5     6  am
     6     6     7   2
     7     6     8   1
     8     8     9   1
     9     8    12   1
    10     9    10   1
    11     9    11   1
    12    12    13   1
    13    13    14   1
    14    14    15   1
    15    14    22   1
    16    15    16   1
    17    16    17  ar
    18    16    21  ar
    19    17    18  ar
    20    18    19  ar
    21    19    20  ar
    22    20    21  ar
    23    22    23  am
    24    23    24   2
    25    23    25   1
    26    25    26  ar
    27    25    27  ar
    28    26    36  ar
    29    27    28  ar
    30    28    29   1
    31    28    35  ar
    32    29    30   1
    33    29    31  am
    34    31    32   2
    35    31    33   2
    36    31    34   1
    37    35    36  ar
    38    36    37   1
    39    37    38   2
    40    37    39  am
    41    39    40   1
    42    40    41   1
    43    40    42   1
    44    42    43  ar
    45    42    47  ar
    46    43    44  ar
    47    44    45  ar
    48    45    46  ar
    49    46    47  ar
    50     1    48   1
    51     1    49   1
    52     1    50   1
    53     2    51   1
    54     3    52   1
    55     3    53   1
    56     3    54   1
    57     4    55   1
    58     4    56   1
    59     5    57   1
    60     8    58   1
    61     9    59   1
    62    10    60   1
    63    10    61   1
    64    10    62   1
    65    11    63   1
    66    12    64   1
    67    12    65   1
    68    13    66   1
    69    13    67   1
    70    14    68   1
    71    15    69   1
    72    15    70   1
    73    17    71   1
    74    18    72   1
    75    19    73   1
    76    20    74   1
    77    21    75   1
    78    22    76   1
    79    26    77   1
    80    27    78   1
    81    30    79   1
    82    30    80   1
    83    30    81   1
    84    34    82   1
    85    34    83   1
    86    34    84   1
    87    35    85   1
    88    39    86   1
    89    40    87   1
    90    41    88   1
    91    41    89   1
    92    41    90   1
    93    43    91   1
    94    44    92   1
    95    45    93   1
    96    46    94   1
    97    47    95   1
@<TRIPOS>SUBSTRUCTURE
     1  MOL      1

