@<TRIPOS>MOLECULE
4gid_ligand_015
    95    97
SMALL
GAST_HUCK
****
This file was generated by PARSER (from files_GN.cpp)

@<TRIPOS>ATOM
      1 CBK        39.9491   -0.8321   14.5656 C.3         1 MOL      -0.0608
      2 CBL        39.5879   -2.3303   14.3810 C.3         1 MOL      -0.0265
      3 CBM        38.3266   -2.4998   13.4938 C.3         1 MOL      -0.0608
      4 CBN        40.8003   -3.1596   13.8523 C.3         1 MOL       0.0334
      5 NBO        41.3630   -2.6390   12.6412 N.am        1 MOL      -0.2820
      6 CBP        42.4470   -3.0899   12.0290 C.2         1 MOL       0.2271
      7 OBV        43.1187   -3.9964   12.5152 O.2         1 MOL      -0.3908
      8 CBG        42.8793   -2.4352   10.8007 C.3         1 MOL       0.0928
      9 CBH        43.7607   -3.3172    9.8455 C.3         1 MOL       0.1121
     10 CBJ        43.1900   -4.7274    9.5276 C.3         1 MOL      -0.0314
     11 OBI        43.9571   -2.6699    8.5811 O.3         1 MOL      -0.3840
     12 NBF        43.3491   -1.0553   11.1698 N.4         1 MOL       0.2497
     13 CAX        44.6961   -0.5265   10.8204 C.3         1 MOL      -0.0062
     14 CAW        45.7757   -0.6080   11.9514 C.3         1 MOL       0.0906
     15 CAY        45.8653    0.6984   12.8119 C.3         1 MOL       0.0089
     16 CAZ        47.0468    0.8506   13.7138 C.ar        1 MOL      -0.0406
     17 CBA        47.6759   -0.2610   14.3369 C.ar        1 MOL      -0.0603
     18 CBB        48.8263   -0.0882   15.1261 C.ar        1 MOL      -0.0686
     19 CBC        49.3555    1.1998   15.3428 C.ar        1 MOL      -0.0687
     20 CBD        48.7234    2.3186   14.7607 C.ar        1 MOL      -0.0686
     21 CBE        47.5823    2.1454   13.9611 C.ar        1 MOL      -0.0603
     22 NAV        47.0625   -0.8819   11.3656 N.am        1 MOL      -0.2761
     23 CAT        47.6862   -2.0501   11.3311 C.2         1 MOL       0.2026
     24 OAU        47.1910   -3.0622   11.8284 O.2         1 MOL      -0.3847
     25 CAP        48.8549   -2.2053   10.6204 C.ar        1 MOL       0.0397
     26 CAQ        50.0530   -1.5565   11.0064 C.ar        1 MOL      -0.0393
     27 CAO        48.8511   -2.9938    9.4513 C.ar        1 MOL      -0.0214
     28 CAN        50.0181   -3.1535    8.6764 C.ar        1 MOL       0.0754
     29 NAE        49.9526   -3.7487    7.4465 N.am        1 MOL      -0.1796
     30 CBT        50.1271   -2.9691    6.2524 C.3         1 MOL       0.0445
     31 SAB        49.7471   -5.4246    7.3342 S.o2        1 MOL       0.0593
     32 OAC        48.5915   -5.9199    8.3070 O.2         1 MOL      -0.1500
     33 OAD        49.2448   -5.8215    5.8768 O.2         1 MOL      -0.1500
     34 CAA        51.2625   -6.3252    7.6877 C.3         1 MOL       0.0790
     35 CAS        51.2133   -2.5417    9.1043 C.ar        1 MOL      -0.0214
     36 CAR        51.2470   -1.7234   10.2570 C.ar        1 MOL       0.0398
     37 CAL        52.4256   -1.0697   10.6005 C.2         1 MOL       0.2041
     38 OAM        53.4440   -1.7476   10.7487 O.2         1 MOL      -0.3845
     39 NBQ        52.4761    0.2560   10.6947 N.am        1 MOL      -0.2723
     40 CBR        53.6593    1.0348   10.9566 C.3         1 MOL       0.0723
     41 CBS        53.2784    2.4287   11.5228 C.3         1 MOL      -0.0320
     42 CAI        54.5364    1.1591    9.7435 C.ar        1 MOL      -0.0183
     43 CAH        55.8047    0.5275    9.6889 C.ar        1 MOL      -0.0582
     44 CAG        56.6325    0.6653    8.5593 C.ar        1 MOL      -0.0685
     45 CAF        56.2057    1.4371    7.4634 C.ar        1 MOL      -0.0687
     46 CAK        54.9493    2.0634    7.4968 C.ar        1 MOL      -0.0685
     47 CAJ        54.1171    1.9167    8.6185 C.ar        1 MOL      -0.0582
     48 H1         39.1340   -0.3063   15.0602 H           1 MOL       0.0233
     49 H2         40.1333   -0.3540   13.6020 H           1 MOL       0.0233
     50 H3         40.8417   -0.7190   15.1806 H           1 MOL       0.0233
     51 H4         39.3386   -2.7208   15.3746 H           1 MOL       0.0315
     52 H5         38.0341   -3.5503   13.4534 H           1 MOL       0.0233
     53 H6         38.5179   -2.1516   12.4771 H           1 MOL       0.0233
     54 H7         37.4927   -1.9270   13.9026 H           1 MOL       0.0233
     55 H8         40.4785   -4.1915   13.6765 H           1 MOL       0.0522
     56 H9         41.5645   -3.1858   14.6354 H           1 MOL       0.0522
     57 H10        40.8923   -1.8943   12.2289 H           1 MOL       0.1853
     58 H11        41.9684   -2.2741   10.2101 H           1 MOL       0.1125
     59 H12        44.7499   -3.4498   10.3178 H           1 MOL       0.0674
     60 H13        43.8715   -5.2493    8.8498 H           1 MOL       0.0258
     61 H14        42.2116   -4.6259    9.0369 H           1 MOL       0.0258
     62 H15        43.0820   -5.3149   10.4433 H           1 MOL       0.0258
     63 H16        43.0596   -2.4643    8.2254 H           1 MOL       0.2102
     64 H17        43.2305   -0.9298   12.1799 H           1 MOL       0.2037
     65 H18        42.6873   -0.4275   10.7190 H           1 MOL       0.2037
     66 H19        44.5454    0.5167   10.5419 H           1 MOL       0.0839
     67 H20        45.0670   -1.0003    9.9155 H           1 MOL       0.0839
     68 H21        45.4880   -1.4218   12.6195 H           1 MOL       0.0632
     69 H22        44.9690    0.7773   13.4254 H           1 MOL       0.0450
     70 H23        45.8502    1.5506   12.1260 H           1 MOL       0.0450
     71 H24        47.3060   -1.2037   14.2103 H           1 MOL       0.0557
     72 H25        49.2879   -0.9053   15.5416 H           1 MOL       0.0599
     73 H26        50.1771    1.3210   15.9356 H           1 MOL       0.0559
     74 H27        49.0993    3.2567   14.9377 H           1 MOL       0.0599
     75 H28        47.1335    2.9795   13.5682 H           1 MOL       0.0557
     76 H29        47.4740   -0.1390   10.8907 H           1 MOL       0.1852
     77 H30        50.0639   -0.9609   11.8416 H           1 MOL       0.0576
     78 H31        47.9785   -3.4128    9.1189 H           1 MOL       0.0566
     79 H32        50.3849   -1.9324    6.4759 H           1 MOL       0.0517
     80 H33        49.1966   -2.9575    5.6900 H           1 MOL       0.0517
     81 H34        50.9172   -3.3922    5.6316 H           1 MOL       0.0517
     82 H35        51.0946   -7.3925    7.5524 H           1 MOL       0.0487
     83 H36        51.5583   -6.1320    8.7172 H           1 MOL       0.0487
     84 H37        52.0516   -5.9930    7.0142 H           1 MOL       0.0487
     85 H38        52.0542   -2.6512    8.5275 H           1 MOL       0.0566
     86 H39        51.6430    0.7373   10.5566 H           1 MOL       0.1875
     87 H40        54.2052    0.5314   11.7656 H           1 MOL       0.0716
     88 H41        54.1784    3.0114   11.7334 H           1 MOL       0.0274
     89 H42        52.7224    2.3151   12.4549 H           1 MOL       0.0274
     90 H43        52.6580    2.9842   10.8167 H           1 MOL       0.0274
     91 H44        56.1379   -0.0320   10.4785 H           1 MOL       0.0557
     92 H45        57.5453    0.2095    8.5345 H           1 MOL       0.0599
     93 H46        56.8057    1.5390    6.6418 H           1 MOL       0.0559
     94 H47        54.6432    2.6382    6.7088 H           1 MOL       0.0599
     95 H48        53.2065    2.3805    8.6185 H           1 MOL       0.0557
@<TRIPOS>BOND
     1     1     2   1
     2     2     3   1
     3     2     4   1
     4     4     5   1
     5     5     6  am
     6     6     7   2
     7     6     8   1
     8     8     9   1
     9     8    12   1
    10     9    10   1
    11     9    11   1
    12    12    13   1
    13    13    14   1
    14    14    15   1
    15    14    22   1
    16    15    16   1
    17    16    17  ar
    18    16    21  ar
    19    17    18  ar
    20    18    19  ar
    21    19    20  ar
    22    20    21  ar
    23    22    23  am
    24    23    24   2
    25    23    25   1
    26    25    26  ar
    27    25    27  ar
    28    26    36  ar
    29    27    28  ar
    30    28    29   1
    31    28    35  ar
    32    29    30   1
    33    29    31  am
    34    31    32   2
    35    31    33   2
    36    31    34   1
    37    35    36  ar
    38    36    37   1
    39    37    38   2
    40    37    39  am
    41    39    40   1
    42    40    41   1
    43    40    42   1
    44    42    43  ar
    45    42    47  ar
    46    43    44  ar
    47    44    45  ar
    48    45    46  ar
    49    46    47  ar
    50     1    48   1
    51     1    49   1
    52     1    50   1
    53     2    51   1
    54     3    52   1
    55     3    53   1
    56     3    54   1
    57     4    55   1
    58     4    56   1
    59     5    57   1
    60     8    58   1
    61     9    59   1
    62    10    60   1
    63    10    61   1
    64    10    62   1
    65    11    63   1
    66    12    64   1
    67    12    65   1
    68    13    66   1
    69    13    67   1
    70    14    68   1
    71    15    69   1
    72    15    70   1
    73    17    71   1
    74    18    72   1
    75    19    73   1
    76    20    74   1
    77    21    75   1
    78    22    76   1
    79    26    77   1
    80    27    78   1
    81    30    79   1
    82    30    80   1
    83    30    81   1
    84    34    82   1
    85    34    83   1
    86    34    84   1
    87    35    85   1
    88    39    86   1
    89    40    87   1
    90    41    88   1
    91    41    89   1
    92    41    90   1
    93    43    91   1
    94    44    92   1
    95    45    93   1
    96    46    94   1
    97    47    95   1
@<TRIPOS>SUBSTRUCTURE
     1  MOL      1

