@<TRIPOS>MOLECULE
4gid_ligand_074
    95    97
SMALL
GAST_HUCK
****
This file was generated by PARSER (from files_GN.cpp)

@<TRIPOS>ATOM
      1 CBK        39.0477   -3.2941   14.1682 C.3         1 MOL      -0.0608
      2 CBL        38.8476   -3.9471   12.7743 C.3         1 MOL      -0.0265
      3 CBM        39.8532   -5.1176   12.5703 C.3         1 MOL      -0.0608
      4 CBN        37.3732   -4.4096   12.5684 C.3         1 MOL       0.0334
      5 NBO        36.9802   -4.3411   11.1874 N.am        1 MOL      -0.2820
      6 CBP        35.7755   -4.6177   10.7006 C.2         1 MOL       0.2271
      7 OBV        34.8648   -4.9494   11.4468 O.2         1 MOL      -0.3908
      8 CBG        35.5039   -4.3865    9.2747 C.3         1 MOL       0.0928
      9 CBH        34.0184   -4.0380    8.9366 C.3         1 MOL       0.1121
     10 CBJ        33.8489   -3.3360    7.5539 C.3         1 MOL      -0.0314
     11 OBI        33.1547   -5.1751    9.0104 O.3         1 MOL      -0.3840
     12 NBF        36.0839   -5.4546    8.4028 N.4         1 MOL       0.2497
     13 CAX        35.8187   -6.9047    8.6092 C.3         1 MOL      -0.0062
     14 CAW        36.3236   -7.4799    9.9874 C.3         1 MOL       0.0906
     15 CAY        36.9291   -8.9322    9.8705 C.3         1 MOL       0.0089
     16 CAZ        38.3521   -8.9901   10.3263 C.ar        1 MOL      -0.0406
     17 CBA        39.3914   -8.6093    9.4510 C.ar        1 MOL      -0.0603
     18 CBB        40.7268   -8.5689    9.8950 C.ar        1 MOL      -0.0686
     19 CBC        41.0288   -8.8840   11.2362 C.ar        1 MOL      -0.0687
     20 CBD        40.0094   -9.2623   12.1183 C.ar        1 MOL      -0.0686
     21 CBE        38.6729   -9.3167   11.6791 C.ar        1 MOL      -0.0603
     22 NAV        35.2796   -7.3903   10.9792 N.am        1 MOL      -0.2761
     23 CAT        35.4499   -7.5008   12.2972 C.2         1 MOL       0.2026
     24 OAU        36.5781   -7.6281   12.7663 O.2         1 MOL      -0.3847
     25 CAP        34.4163   -7.2992   13.1869 C.ar        1 MOL       0.0397
     26 CAQ        34.3710   -6.1199   13.9620 C.ar        1 MOL      -0.0393
     27 CAO        33.4708   -8.3147   13.4612 C.ar        1 MOL      -0.0214
     28 CAN        32.4867   -8.1496   14.4624 C.ar        1 MOL       0.0754
     29 NAE        31.6505   -9.1990   14.7957 N.am        1 MOL      -0.1796
     30 CBT        32.2057  -10.4584   15.2138 C.3         1 MOL       0.0445
     31 SAB        29.9867   -8.9586   14.9748 S.o2        1 MOL       0.0593
     32 OAC        29.6497   -8.3947   16.4199 O.2         1 MOL      -0.1500
     33 OAD        29.4666   -7.9172   13.8924 O.2         1 MOL      -0.1500
     34 CAA        29.0099  -10.4544   14.7065 C.3         1 MOL       0.0790
     35 CAS        32.4348   -6.9283   15.1705 C.ar        1 MOL      -0.0214
     36 CAR        33.3671   -5.8837   14.9354 C.ar        1 MOL       0.0398
     37 CAL        33.3025   -4.6645   15.6417 C.2         1 MOL       0.2041
     38 OAM        32.2245   -4.2699   16.0706 O.2         1 MOL      -0.3845
     39 NBQ        34.3894   -3.9408   15.8496 N.am        1 MOL      -0.2723
     40 CBR        34.5287   -2.6829   16.5426 C.3         1 MOL       0.0723
     41 CBS        35.3203   -1.7394   15.6034 C.3         1 MOL      -0.0320
     42 CAI        35.1839   -2.8025   17.8852 C.ar        1 MOL      -0.0183
     43 CAH        35.9573   -3.9309   18.2847 C.ar        1 MOL      -0.0582
     44 CAG        36.5290   -4.0078   19.5593 C.ar        1 MOL      -0.0685
     45 CAF        36.3565   -2.9519   20.4851 C.ar        1 MOL      -0.0687
     46 CAK        35.6028   -1.8208   20.0995 C.ar        1 MOL      -0.0685
     47 CAJ        35.0320   -1.7543   18.8319 C.ar        1 MOL      -0.0582
     48 H1         40.0832   -2.9683   14.2877 H           1 MOL       0.0233
     49 H2         38.8045   -3.9975   14.9674 H           1 MOL       0.0233
     50 H3         38.4034   -2.4166   14.2663 H           1 MOL       0.0233
     51 H4         39.0754   -3.1795   12.0263 H           1 MOL       0.0315
     52 H5         39.7696   -5.5235   11.5598 H           1 MOL       0.0233
     53 H6         39.6689   -5.9240   13.2855 H           1 MOL       0.0233
     54 H7         40.8757   -4.7625   12.7086 H           1 MOL       0.0233
     55 H8         36.7014   -3.7625   13.1477 H           1 MOL       0.0522
     56 H9         37.2733   -5.4312   12.9446 H           1 MOL       0.0522
     57 H10        37.6651   -4.0464   10.5602 H           1 MOL       0.1853
     58 H11        36.0711   -3.4865    9.0131 H           1 MOL       0.1125
     59 H12        33.6592   -3.3206    9.6813 H           1 MOL       0.0674
     60 H13        32.7984   -3.0889    7.3965 H           1 MOL       0.0258
     61 H14        34.1780   -3.9865    6.7431 H           1 MOL       0.0258
     62 H15        34.4291   -2.4107    7.5268 H           1 MOL       0.0258
     63 H16        32.2701   -4.8261    9.2470 H           1 MOL       0.2102
     64 H17        37.0994   -5.3334    8.3971 H           1 MOL       0.2037
     65 H18        35.7722   -5.2357    7.4489 H           1 MOL       0.2037
     66 H19        36.3527   -7.3815    7.7791 H           1 MOL       0.0839
     67 H20        34.7650   -7.1430    8.4571 H           1 MOL       0.0839
     68 H21        37.1131   -6.8004   10.3187 H           1 MOL       0.0632
     69 H22        36.8796   -9.3061    8.8362 H           1 MOL       0.0450
     70 H23        36.3283   -9.6308   10.4544 H           1 MOL       0.0450
     71 H24        39.1790   -8.3498    8.4788 H           1 MOL       0.0557
     72 H25        41.4660   -8.2947    9.2537 H           1 MOL       0.0599
     73 H26        42.0004   -8.8428   11.5603 H           1 MOL       0.0559
     74 H27        40.2267   -9.4893   13.0913 H           1 MOL       0.0599
     75 H28        37.9383   -9.5877   12.3322 H           1 MOL       0.0557
     76 H29        34.3719   -7.2417   10.6629 H           1 MOL       0.1852
     77 H30        35.0728   -5.3932   13.7784 H           1 MOL       0.0576
     78 H31        33.5183   -9.1932   12.9405 H           1 MOL       0.0566
     79 H32        33.2993  -10.4709   15.1973 H           1 MOL       0.0517
     80 H33        31.8520  -11.2537   14.5555 H           1 MOL       0.0517
     81 H34        31.8920  -10.6787   16.2369 H           1 MOL       0.0517
     82 H35        27.9487  -10.2177   14.7578 H           1 MOL       0.0487
     83 H36        29.2476  -11.1873   15.4758 H           1 MOL       0.0487
     84 H37        29.2376  -10.8745   13.7287 H           1 MOL       0.0487
     85 H38        31.7345   -6.8089   15.9033 H           1 MOL       0.0566
     86 H39        35.2271   -4.3407   15.5720 H           1 MOL       0.1875
     87 H40        33.5340   -2.2450   16.6868 H           1 MOL       0.0716
     88 H41        35.3902   -0.7366   16.0289 H           1 MOL       0.0274
     89 H42        34.8218   -1.6604   14.6317 H           1 MOL       0.0274
     90 H43        36.3352   -2.1220   15.4464 H           1 MOL       0.0274
     91 H44        36.1053   -4.7141   17.6401 H           1 MOL       0.0557
     92 H45        37.0771   -4.8267   19.8338 H           1 MOL       0.0599
     93 H46        36.7671   -3.0078   21.4091 H           1 MOL       0.0559
     94 H47        35.4819   -1.0549   20.7691 H           1 MOL       0.0599
     95 H48        34.4730   -0.9264   18.5873 H           1 MOL       0.0557
@<TRIPOS>BOND
     1     1     2   1
     2     2     3   1
     3     2     4   1
     4     4     5   1
     5     5     6  am
     6     6     7   2
     7     6     8   1
     8     8     9   1
     9     8    12   1
    10     9    10   1
    11     9    11   1
    12    12    13   1
    13    13    14   1
    14    14    15   1
    15    14    22   1
    16    15    16   1
    17    16    17  ar
    18    16    21  ar
    19    17    18  ar
    20    18    19  ar
    21    19    20  ar
    22    20    21  ar
    23    22    23  am
    24    23    24   2
    25    23    25   1
    26    25    26  ar
    27    25    27  ar
    28    26    36  ar
    29    27    28  ar
    30    28    29   1
    31    28    35  ar
    32    29    30   1
    33    29    31  am
    34    31    32   2
    35    31    33   2
    36    31    34   1
    37    35    36  ar
    38    36    37   1
    39    37    38   2
    40    37    39  am
    41    39    40   1
    42    40    41   1
    43    40    42   1
    44    42    43  ar
    45    42    47  ar
    46    43    44  ar
    47    44    45  ar
    48    45    46  ar
    49    46    47  ar
    50     1    48   1
    51     1    49   1
    52     1    50   1
    53     2    51   1
    54     3    52   1
    55     3    53   1
    56     3    54   1
    57     4    55   1
    58     4    56   1
    59     5    57   1
    60     8    58   1
    61     9    59   1
    62    10    60   1
    63    10    61   1
    64    10    62   1
    65    11    63   1
    66    12    64   1
    67    12    65   1
    68    13    66   1
    69    13    67   1
    70    14    68   1
    71    15    69   1
    72    15    70   1
    73    17    71   1
    74    18    72   1
    75    19    73   1
    76    20    74   1
    77    21    75   1
    78    22    76   1
    79    26    77   1
    80    27    78   1
    81    30    79   1
    82    30    80   1
    83    30    81   1
    84    34    82   1
    85    34    83   1
    86    34    84   1
    87    35    85   1
    88    39    86   1
    89    40    87   1
    90    41    88   1
    91    41    89   1
    92    41    90   1
    93    43    91   1
    94    44    92   1
    95    45    93   1
    96    46    94   1
    97    47    95   1
@<TRIPOS>SUBSTRUCTURE
     1  MOL      1

