@<TRIPOS>MOLECULE
4gid_ligand_012
    95    97
SMALL
GAST_HUCK
****
This file was generated by PARSER (from files_GN.cpp)

@<TRIPOS>ATOM
      1 CBK        36.2507   -8.7966    9.3155 C.3         1 MOL      -0.0608
      2 CBL        35.4285   -7.4784    9.2480 C.3         1 MOL      -0.0265
      3 CBM        34.5345   -7.3019   10.5083 C.3         1 MOL      -0.0608
      4 CBN        36.3543   -6.2584    8.9812 C.3         1 MOL       0.0334
      5 NBO        37.3934   -6.1357    9.9623 N.am        1 MOL      -0.2820
      6 CBP        38.6310   -6.6163    9.8982 C.2         1 MOL       0.2271
      7 OBV        38.9607   -7.3565    8.9789 O.2         1 MOL      -0.3908
      8 CBG        39.6336   -6.3042   10.9207 C.3         1 MOL       0.0928
      9 CBH        40.1198   -7.5688   11.7165 C.3         1 MOL       0.1121
     10 CBJ        39.1259   -8.7586   11.8274 C.3         1 MOL      -0.0314
     11 OBI        41.3374   -8.0744   11.1572 O.3         1 MOL      -0.3840
     12 NBF        39.1911   -5.1733   11.8039 N.4         1 MOL       0.2497
     13 CAX        40.2325   -4.5160   12.6449 C.3         1 MOL      -0.0062
     14 CAW        39.7172   -3.2334   13.3679 C.3         1 MOL       0.0906
     15 CAY        40.8545   -2.4626   14.1150 C.3         1 MOL       0.0089
     16 CAZ        41.7006   -1.6191   13.2237 C.ar        1 MOL      -0.0406
     17 CBA        42.7724   -2.1797   12.4872 C.ar        1 MOL      -0.0603
     18 CBB        43.5783   -1.3776   11.6570 C.ar        1 MOL      -0.0686
     19 CBC        43.3200    0.0003   11.5465 C.ar        1 MOL      -0.0687
     20 CBD        42.2625    0.5748   12.2728 C.ar        1 MOL      -0.0686
     21 CBE        41.4632   -0.2276   13.1081 C.ar        1 MOL      -0.0603
     22 NAV        38.7098   -3.5850   14.3353 N.am        1 MOL      -0.2761
     23 CAT        37.4544   -3.1556   14.3722 C.2         1 MOL       0.2026
     24 OAU        36.9940   -2.4262   13.5008 O.2         1 MOL      -0.3847
     25 CAP        36.5933   -3.5741   15.3633 C.ar        1 MOL       0.0397
     26 CAQ        36.6063   -2.9850   16.6500 C.ar        1 MOL      -0.0393
     27 CAO        35.6436   -4.5782   15.0753 C.ar        1 MOL      -0.0214
     28 CAN        34.7131   -4.9874   16.0497 C.ar        1 MOL       0.0754
     29 NAE        33.8339   -5.9929   15.7791 N.am        1 MOL      -0.1796
     30 CBT        34.2749   -7.3530   15.6699 C.3         1 MOL       0.0445
     31 SAB        32.2826   -5.5491   15.2754 S.o2        1 MOL       0.0593
     32 OAC        31.7373   -4.3966   16.2270 O.2         1 MOL      -0.1500
     33 OAD        32.3872   -4.9649   13.8015 O.2         1 MOL      -0.1500
     34 CAA        31.0651   -6.8764   15.3180 C.3         1 MOL       0.0790
     35 CAS        34.6964   -4.3488   17.3053 C.ar        1 MOL      -0.0214
     36 CAR        35.6372   -3.3407   17.6250 C.ar        1 MOL       0.0398
     37 CAL        35.6117   -2.7461   18.8780 C.2         1 MOL       0.2041
     38 OAM        34.5511   -2.3133   19.3182 O.2         1 MOL      -0.3845
     39 NBQ        36.7137   -2.7424   19.6209 N.am        1 MOL      -0.2723
     40 CBR        36.8690   -2.2978   20.9820 C.3         1 MOL       0.0723
     41 CBS        36.1631   -3.2874   21.9568 C.3         1 MOL      -0.0320
     42 CAI        36.5703   -0.8337   21.1393 C.ar        1 MOL      -0.0183
     43 CAH        35.6917   -0.3141   22.1252 C.ar        1 MOL      -0.0582
     44 CAG        35.4962    1.0720   22.2696 C.ar        1 MOL      -0.0685
     45 CAF        36.1716    1.9685   21.4247 C.ar        1 MOL      -0.0687
     46 CAK        37.0439    1.4792   20.4378 C.ar        1 MOL      -0.0685
     47 CAJ        37.2447    0.0935   20.3049 C.ar        1 MOL      -0.0582
     48 H1         35.5875   -9.6630    9.4499 H           1 MOL       0.0233
     49 H2         36.9535   -8.7650   10.1571 H           1 MOL       0.0233
     50 H3         36.8145   -8.9359    8.3811 H           1 MOL       0.0233
     51 H4         34.7562   -7.5526    8.3910 H           1 MOL       0.0315
     52 H5         33.9072   -6.4151   10.4064 H           1 MOL       0.0233
     53 H6         35.1471   -7.1952   11.4074 H           1 MOL       0.0233
     54 H7         33.8833   -8.1678   10.6382 H           1 MOL       0.0233
     55 H8         35.7608   -5.3434    9.0127 H           1 MOL       0.0522
     56 H9         36.7636   -6.3281    7.9696 H           1 MOL       0.0522
     57 H10        37.1585   -5.6436   10.7647 H           1 MOL       0.1853
     58 H11        40.4968   -5.9188   10.3683 H           1 MOL       0.1125
     59 H12        40.3663   -7.2685   12.7399 H           1 MOL       0.0674
     60 H13        39.4540   -9.4513   12.6106 H           1 MOL       0.0258
     61 H14        39.0824   -9.3112   10.8876 H           1 MOL       0.0258
     62 H15        38.1234   -8.4033   12.0702 H           1 MOL       0.0258
     63 H16        41.1065   -8.3817   10.2550 H           1 MOL       0.2102
     64 H17        38.4260   -5.4951   12.4077 H           1 MOL       0.2037
     65 H18        38.8344   -4.4448   11.1779 H           1 MOL       0.2037
     66 H19        41.0654   -4.2299   11.9976 H           1 MOL       0.0839
     67 H20        40.6061   -5.2257   13.3872 H           1 MOL       0.0839
     68 H21        39.3060   -2.5629   12.6023 H           1 MOL       0.0632
     69 H22        41.4874   -3.1659   14.6657 H           1 MOL       0.0450
     70 H23        40.4016   -1.8157   14.8721 H           1 MOL       0.0450
     71 H24        42.9778   -3.1797   12.5620 H           1 MOL       0.0557
     72 H25        44.3555   -1.7939   11.1379 H           1 MOL       0.0599
     73 H26        43.8997    0.5836   10.9390 H           1 MOL       0.0559
     74 H27        42.0748    1.5756   12.1940 H           1 MOL       0.0599
     75 H28        40.6985    0.2099   13.6273 H           1 MOL       0.0557
     76 H29        38.9859   -4.1863   15.0453 H           1 MOL       0.1852
     77 H30        37.2898   -2.2529   16.8608 H           1 MOL       0.0576
     78 H31        35.6316   -5.0260   14.1546 H           1 MOL       0.0566
     79 H32        35.3138   -7.4808   15.9864 H           1 MOL       0.0517
     80 H33        34.1940   -7.6924   14.6358 H           1 MOL       0.0517
     81 H34        33.6577   -7.9923   16.3022 H           1 MOL       0.0517
     82 H35        30.1013   -6.4943   14.9890 H           1 MOL       0.0487
     83 H36        30.9747   -7.2574   16.3351 H           1 MOL       0.0487
     84 H37        31.3768   -7.6825   14.6537 H           1 MOL       0.0487
     85 H38        34.0057   -4.6488   18.0028 H           1 MOL       0.0566
     86 H39        37.5059   -3.1310   19.2117 H           1 MOL       0.1875
     87 H40        37.9391   -2.3980   21.1927 H           1 MOL       0.0716
     88 H41        36.4589   -3.0831   22.9895 H           1 MOL       0.0274
     89 H42        36.4406   -4.3180   21.7219 H           1 MOL       0.0274
     90 H43        35.0775   -3.1988   21.8822 H           1 MOL       0.0274
     91 H44        35.1921   -0.9326   22.7637 H           1 MOL       0.0557
     92 H45        34.8658    1.4298   22.9893 H           1 MOL       0.0599
     93 H46        36.0262    2.9768   21.5270 H           1 MOL       0.0559
     94 H47        37.5307    2.1324   19.8183 H           1 MOL       0.0599
     95 H48        37.8986   -0.2377   19.5907 H           1 MOL       0.0557
@<TRIPOS>BOND
     1     1     2   1
     2     2     3   1
     3     2     4   1
     4     4     5   1
     5     5     6  am
     6     6     7   2
     7     6     8   1
     8     8     9   1
     9     8    12   1
    10     9    10   1
    11     9    11   1
    12    12    13   1
    13    13    14   1
    14    14    15   1
    15    14    22   1
    16    15    16   1
    17    16    17  ar
    18    16    21  ar
    19    17    18  ar
    20    18    19  ar
    21    19    20  ar
    22    20    21  ar
    23    22    23  am
    24    23    24   2
    25    23    25   1
    26    25    26  ar
    27    25    27  ar
    28    26    36  ar
    29    27    28  ar
    30    28    29   1
    31    28    35  ar
    32    29    30   1
    33    29    31  am
    34    31    32   2
    35    31    33   2
    36    31    34   1
    37    35    36  ar
    38    36    37   1
    39    37    38   2
    40    37    39  am
    41    39    40   1
    42    40    41   1
    43    40    42   1
    44    42    43  ar
    45    42    47  ar
    46    43    44  ar
    47    44    45  ar
    48    45    46  ar
    49    46    47  ar
    50     1    48   1
    51     1    49   1
    52     1    50   1
    53     2    51   1
    54     3    52   1
    55     3    53   1
    56     3    54   1
    57     4    55   1
    58     4    56   1
    59     5    57   1
    60     8    58   1
    61     9    59   1
    62    10    60   1
    63    10    61   1
    64    10    62   1
    65    11    63   1
    66    12    64   1
    67    12    65   1
    68    13    66   1
    69    13    67   1
    70    14    68   1
    71    15    69   1
    72    15    70   1
    73    17    71   1
    74    18    72   1
    75    19    73   1
    76    20    74   1
    77    21    75   1
    78    22    76   1
    79    26    77   1
    80    27    78   1
    81    30    79   1
    82    30    80   1
    83    30    81   1
    84    34    82   1
    85    34    83   1
    86    34    84   1
    87    35    85   1
    88    39    86   1
    89    40    87   1
    90    41    88   1
    91    41    89   1
    92    41    90   1
    93    43    91   1
    94    44    92   1
    95    45    93   1
    96    46    94   1
    97    47    95   1
@<TRIPOS>SUBSTRUCTURE
     1  MOL      1

