@<TRIPOS>MOLECULE
4gid_ligand_067
    95    97
SMALL
GAST_HUCK
****
This file was generated by PARSER (from files_GN.cpp)

@<TRIPOS>ATOM
      1 CBK        46.7792   -3.1224    9.5069 C.3         1 MOL      -0.0608
      2 CBL        46.2839   -3.0294   10.9744 C.3         1 MOL      -0.0265
      3 CBM        47.4165   -2.4937   11.8923 C.3         1 MOL      -0.0608
      4 CBN        44.9688   -2.1841   11.1173 C.3         1 MOL       0.0334
      5 NBO        43.8101   -3.0110   11.2330 N.am        1 MOL      -0.2820
      6 CBP        42.6480   -2.6959   11.7961 C.2         1 MOL       0.2271
      7 OBV        42.5147   -1.5984   12.3183 O.2         1 MOL      -0.3908
      8 CBG        41.5647   -3.6681   11.9705 C.3         1 MOL       0.0928
      9 CBH        41.6273   -4.9636   11.0925 C.3         1 MOL       0.1121
     10 CBJ        41.7484   -4.7171    9.5647 C.3         1 MOL      -0.0314
     11 OBI        42.7029   -5.8109   11.5039 O.3         1 MOL      -0.3840
     12 NBF        40.2181   -3.0289   11.7812 N.4         1 MOL       0.2497
     13 CAX        39.4974   -2.5501   12.9932 C.3         1 MOL      -0.0062
     14 CAW        38.9201   -3.6876   13.9092 C.3         1 MOL       0.0906
     15 CAY        37.5373   -4.2388   13.4018 C.3         1 MOL       0.0089
     16 CAZ        36.3113   -3.7486   14.1158 C.ar        1 MOL      -0.0406
     17 CBA        35.4130   -4.6487   14.7317 C.ar        1 MOL      -0.0603
     18 CBB        34.3005   -4.1804   15.4577 C.ar        1 MOL      -0.0686
     19 CBC        34.0817   -2.8003   15.5945 C.ar        1 MOL      -0.0687
     20 CBD        34.9687   -1.8916   15.0000 C.ar        1 MOL      -0.0686
     21 CBE        36.0605   -2.3619   14.2525 C.ar        1 MOL      -0.0603
     22 NAV        38.8504   -3.2892   15.2951 N.am        1 MOL      -0.2761
     23 CAT        39.8310   -3.0040   16.1379 C.2         1 MOL       0.2026
     24 OAU        40.9873   -3.1035   15.7559 O.2         1 MOL      -0.3847
     25 CAP        39.5582   -2.5800   17.4535 C.ar        1 MOL       0.0397
     26 CAQ        40.5161   -1.8466   18.2002 C.ar        1 MOL      -0.0393
     27 CAO        38.3188   -2.8636   18.0818 C.ar        1 MOL      -0.0214
     28 CAN        38.0369   -2.4230   19.3873 C.ar        1 MOL       0.0754
     29 NAE        36.8160   -2.6778   19.9380 N.am        1 MOL      -0.1796
     30 CBT        36.4790   -3.9804   20.4327 C.3         1 MOL       0.0445
     31 SAB        35.6771   -1.4261   20.0193 S.o2        1 MOL       0.0593
     32 OAC        34.2217   -2.0138   19.7599 O.2         1 MOL      -0.1500
     33 OAD        35.7024   -0.7456   21.4536 O.2         1 MOL      -0.1500
     34 CAA        35.8801   -0.1476   18.7587 C.3         1 MOL       0.0790
     35 CAS        39.0192   -1.7113   20.1076 C.ar        1 MOL      -0.0214
     36 CAR        40.2764   -1.4198   19.5262 C.ar        1 MOL       0.0398
     37 CAL        41.2507   -0.7247   20.2416 C.2         1 MOL       0.2041
     38 OAM        41.9040    0.1426   19.6750 O.2         1 MOL      -0.3845
     39 NBQ        41.4661   -1.0077   21.5217 N.am        1 MOL      -0.2723
     40 CBR        42.3736   -0.3428   22.4189 C.3         1 MOL       0.0723
     41 CBS        42.3754   -1.0902   23.7759 C.3         1 MOL      -0.0320
     42 CAI        42.0410    1.0995   22.6389 C.ar        1 MOL      -0.0183
     43 CAH        43.0723    2.0648   22.7514 C.ar        1 MOL      -0.0582
     44 CAG        42.7709    3.4157   23.0063 C.ar        1 MOL      -0.0685
     45 CAF        41.4323    3.8254   23.1370 C.ar        1 MOL      -0.0687
     46 CAK        40.3962    2.8852   23.0187 C.ar        1 MOL      -0.0685
     47 CAJ        40.6979    1.5299   22.7828 C.ar        1 MOL      -0.0582
     48 H1         47.6156   -3.8226    9.4333 H           1 MOL       0.0233
     49 H2         47.1145   -2.1454    9.1536 H           1 MOL       0.0233
     50 H3         45.9816   -3.4763    8.8511 H           1 MOL       0.0233
     51 H4         46.0833   -4.0510   11.3079 H           1 MOL       0.0315
     52 H5         47.0867   -2.4848   12.9341 H           1 MOL       0.0233
     53 H6         47.6900   -1.4758   11.6057 H           1 MOL       0.0233
     54 H7         48.2987   -3.1310   11.8236 H           1 MOL       0.0233
     55 H8         44.8364   -1.5121   10.2642 H           1 MOL       0.0522
     56 H9         45.0354   -1.5571   12.0110 H           1 MOL       0.0522
     57 H10        43.9096   -3.9180   10.9081 H           1 MOL       0.1853
     58 H11        41.6696   -4.0038   13.0027 H           1 MOL       0.1125
     59 H12        40.7124   -5.5383   11.2572 H           1 MOL       0.0674
     60 H13        41.6261   -5.6567    9.0293 H           1 MOL       0.0258
     61 H14        42.7185   -4.3188    9.2822 H           1 MOL       0.0258
     62 H15        40.9897   -4.0145    9.2279 H           1 MOL       0.0258
     63 H16        42.4380   -6.1794   12.3767 H           1 MOL       0.2102
     64 H17        39.5980   -3.6680   11.2797 H           1 MOL       0.2037
     65 H18        40.3495   -2.2201   11.1704 H           1 MOL       0.2037
     66 H19        38.6836   -1.9180   12.6394 H           1 MOL       0.0839
     67 H20        40.1634   -1.8922   13.5542 H           1 MOL       0.0839
     68 H21        39.6085   -4.5338   13.8823 H           1 MOL       0.0632
     69 H22        37.5790   -5.3280   13.4707 H           1 MOL       0.0450
     70 H23        37.4127   -4.0198   12.3419 H           1 MOL       0.0450
     71 H24        35.5546   -5.6585   14.6583 H           1 MOL       0.0557
     72 H25        33.6553   -4.8449   15.8924 H           1 MOL       0.0599
     73 H26        33.2822   -2.4564   16.1265 H           1 MOL       0.0559
     74 H27        34.8275   -0.8857   15.1135 H           1 MOL       0.0599
     75 H28        36.6982   -1.6735   13.8576 H           1 MOL       0.0557
     76 H29        37.9577   -3.2014   15.6475 H           1 MOL       0.1852
     77 H30        41.4210   -1.6283   17.7765 H           1 MOL       0.0576
     78 H31        37.6009   -3.4077   17.5948 H           1 MOL       0.0566
     79 H32        37.3084   -4.6875   20.3488 H           1 MOL       0.0517
     80 H33        35.6348   -4.3858   19.8717 H           1 MOL       0.0517
     81 H34        36.2032   -3.9139   21.4878 H           1 MOL       0.0517
     82 H35        35.0756    0.5818   18.8501 H           1 MOL       0.0487
     83 H36        35.8469   -0.5973   17.7668 H           1 MOL       0.0487
     84 H37        36.8371    0.3570   18.8950 H           1 MOL       0.0487
     85 H38        38.8017   -1.3889   21.0543 H           1 MOL       0.0566
     86 H39        40.9645   -1.7521   21.8906 H           1 MOL       0.1875
     87 H40        43.3805   -0.4392   21.9974 H           1 MOL       0.0716
     88 H41        43.0831   -0.6287   24.4688 H           1 MOL       0.0274
     89 H42        42.6697   -2.1313   23.6315 H           1 MOL       0.0274
     90 H43        41.3799   -1.0708   24.2270 H           1 MOL       0.0274
     91 H44        44.0533    1.7857   22.6733 H           1 MOL       0.0557
     92 H45        43.5280    4.0956   23.1067 H           1 MOL       0.0599
     93 H46        41.2138    4.8059   23.3273 H           1 MOL       0.0559
     94 H47        39.4224    3.1793   23.1196 H           1 MOL       0.0599
     95 H48        39.9299    0.8582   22.7126 H           1 MOL       0.0557
@<TRIPOS>BOND
     1     1     2   1
     2     2     3   1
     3     2     4   1
     4     4     5   1
     5     5     6  am
     6     6     7   2
     7     6     8   1
     8     8     9   1
     9     8    12   1
    10     9    10   1
    11     9    11   1
    12    12    13   1
    13    13    14   1
    14    14    15   1
    15    14    22   1
    16    15    16   1
    17    16    17  ar
    18    16    21  ar
    19    17    18  ar
    20    18    19  ar
    21    19    20  ar
    22    20    21  ar
    23    22    23  am
    24    23    24   2
    25    23    25   1
    26    25    26  ar
    27    25    27  ar
    28    26    36  ar
    29    27    28  ar
    30    28    29   1
    31    28    35  ar
    32    29    30   1
    33    29    31  am
    34    31    32   2
    35    31    33   2
    36    31    34   1
    37    35    36  ar
    38    36    37   1
    39    37    38   2
    40    37    39  am
    41    39    40   1
    42    40    41   1
    43    40    42   1
    44    42    43  ar
    45    42    47  ar
    46    43    44  ar
    47    44    45  ar
    48    45    46  ar
    49    46    47  ar
    50     1    48   1
    51     1    49   1
    52     1    50   1
    53     2    51   1
    54     3    52   1
    55     3    53   1
    56     3    54   1
    57     4    55   1
    58     4    56   1
    59     5    57   1
    60     8    58   1
    61     9    59   1
    62    10    60   1
    63    10    61   1
    64    10    62   1
    65    11    63   1
    66    12    64   1
    67    12    65   1
    68    13    66   1
    69    13    67   1
    70    14    68   1
    71    15    69   1
    72    15    70   1
    73    17    71   1
    74    18    72   1
    75    19    73   1
    76    20    74   1
    77    21    75   1
    78    22    76   1
    79    26    77   1
    80    27    78   1
    81    30    79   1
    82    30    80   1
    83    30    81   1
    84    34    82   1
    85    34    83   1
    86    34    84   1
    87    35    85   1
    88    39    86   1
    89    40    87   1
    90    41    88   1
    91    41    89   1
    92    41    90   1
    93    43    91   1
    94    44    92   1
    95    45    93   1
    96    46    94   1
    97    47    95   1
@<TRIPOS>SUBSTRUCTURE
     1  MOL      1

