@<TRIPOS>MOLECULE
4gid_ligand_068
    95    97
SMALL
GAST_HUCK
****
This file was generated by PARSER (from files_GN.cpp)

@<TRIPOS>ATOM
      1 CBK        33.0391   -9.6473   15.9660 C.3         1 MOL      -0.0608
      2 CBL        33.9686   -8.8627   14.9999 C.3         1 MOL      -0.0265
      3 CBM        35.3609   -9.5526   14.9073 C.3         1 MOL      -0.0608
      4 CBN        33.3077   -8.6773   13.6019 C.3         1 MOL       0.0334
      5 NBO        33.9311   -7.6233   12.8475 N.am        1 MOL      -0.2820
      6 CBP        34.0084   -7.5374   11.5222 C.2         1 MOL       0.2271
      7 OBV        33.5836   -8.4464   10.8214 O.2         1 MOL      -0.3908
      8 CBG        34.6397   -6.3834   10.8674 C.3         1 MOL       0.0928
      9 CBH        33.5891   -5.4591   10.1656 C.3         1 MOL       0.1121
     10 CBJ        34.2038   -4.2799    9.3699 C.3         1 MOL      -0.0314
     11 OBI        32.7521   -6.1821    9.2681 O.3         1 MOL      -0.3840
     12 NBF        35.6828   -6.9059    9.9343 N.4         1 MOL       0.2497
     13 CAX        37.0005   -6.2208    9.8685 C.3         1 MOL      -0.0062
     14 CAW        37.9958   -6.5160   11.0341 C.3         1 MOL       0.0906
     15 CAY        38.4143   -8.0229   11.1027 C.3         1 MOL       0.0089
     16 CAZ        39.8414   -8.2887   11.4620 C.ar        1 MOL      -0.0406
     17 CBA        40.1882   -9.1896   12.4953 C.ar        1 MOL      -0.0603
     18 CBB        41.5394   -9.4755   12.7841 C.ar        1 MOL      -0.0686
     19 CBC        42.5611   -8.8686   12.0392 C.ar        1 MOL      -0.0687
     20 CBD        42.2395   -7.9904   10.9931 C.ar        1 MOL      -0.0686
     21 CBE        40.8875   -7.7137   10.6985 C.ar        1 MOL      -0.0603
     22 NAV        37.3994   -6.0422   12.2605 N.am        1 MOL      -0.2761
     23 CAT        37.7137   -4.9323   12.9297 C.2         1 MOL       0.2026
     24 OAU        38.7593   -4.3522   12.6401 O.2         1 MOL      -0.3847
     25 CAP        36.8583   -4.3570   13.8903 C.ar        1 MOL       0.0397
     26 CAQ        37.0343   -3.0004   14.2918 C.ar        1 MOL      -0.0393
     27 CAO        35.7937   -5.0688   14.5016 C.ar        1 MOL      -0.0214
     28 CAN        34.9408   -4.4795   15.4609 C.ar        1 MOL       0.0754
     29 NAE        33.9198   -5.1911   16.0308 N.am        1 MOL      -0.1796
     30 CBT        34.0460   -5.7457   17.3478 C.3         1 MOL       0.0445
     31 SAB        32.3727   -4.9876   15.3703 S.o2        1 MOL       0.0593
     32 OAC        31.7384   -3.6648   15.9875 O.2         1 MOL      -0.1500
     33 OAD        32.4803   -4.7976   13.7950 O.2         1 MOL      -0.1500
     34 CAA        31.2034   -6.3347   15.6634 C.3         1 MOL       0.0790
     35 CAS        35.1594   -3.1442   15.8406 C.ar        1 MOL      -0.0214
     36 CAR        36.2114   -2.3929   15.2608 C.ar        1 MOL       0.0398
     37 CAL        36.4891   -1.1292   15.7070 C.2         1 MOL       0.2041
     38 OAM        36.2142   -0.1585   14.9925 O.2         1 MOL      -0.3845
     39 NBQ        37.0614   -1.0125   16.8956 N.am        1 MOL      -0.2723
     40 CBR        37.4605    0.1682   17.5944 C.3         1 MOL       0.0723
     41 CBS        38.9613   -0.0379   17.9467 C.3         1 MOL      -0.0320
     42 CAI        36.5921    0.4215   18.7968 C.ar        1 MOL      -0.0183
     43 CAH        37.0687    1.2353   19.8575 C.ar        1 MOL      -0.0582
     44 CAG        36.2775    1.4958   20.9905 C.ar        1 MOL      -0.0685
     45 CAF        34.9820    0.9582   21.0876 C.ar        1 MOL      -0.0687
     46 CAK        34.4753    0.1706   20.0405 C.ar        1 MOL      -0.0685
     47 CAJ        35.2691   -0.0848   18.9072 C.ar        1 MOL      -0.0582
     48 H1         33.4943   -9.7155   16.9628 H           1 MOL       0.0233
     49 H2         32.8571  -10.6620   15.5849 H           1 MOL       0.0233
     50 H3         32.0792   -9.1198   16.0585 H           1 MOL       0.0233
     51 H4         34.1300   -7.8694   15.4298 H           1 MOL       0.0315
     52 H5         36.0064   -9.0271   14.2018 H           1 MOL       0.0233
     53 H6         35.2599  -10.5889   14.5787 H           1 MOL       0.0233
     54 H7         35.8497   -9.5475   15.8842 H           1 MOL       0.0233
     55 H8         32.2609   -8.3960   13.7296 H           1 MOL       0.0522
     56 H9         33.3301   -9.6296   13.0629 H           1 MOL       0.0522
     57 H10        34.2273   -6.8515   13.3558 H           1 MOL       0.1853
     58 H11        35.1121   -5.7690   11.6386 H           1 MOL       0.1125
     59 H12        32.9395   -5.0345   10.9398 H           1 MOL       0.0674
     60 H13        33.4170   -3.5910    9.0555 H           1 MOL       0.0258
     61 H14        34.7151   -4.6464    8.4747 H           1 MOL       0.0258
     62 H15        34.9174   -3.7289    9.9808 H           1 MOL       0.0258
     63 H16        32.0741   -5.5374    8.9772 H           1 MOL       0.2102
     64 H17        35.2838   -6.8883    8.9917 H           1 MOL       0.2037
     65 H18        35.8677   -7.8863   10.1631 H           1 MOL       0.2037
     66 H19        36.8636   -5.1405    9.7765 H           1 MOL       0.0839
     67 H20        37.4756   -6.5473    8.9393 H           1 MOL       0.0839
     68 H21        38.8895   -5.9315   10.7962 H           1 MOL       0.0632
     69 H22        38.2692   -8.4884   10.1215 H           1 MOL       0.0450
     70 H23        37.7387   -8.5421   11.7914 H           1 MOL       0.0450
     71 H24        39.4638   -9.6677   13.0346 H           1 MOL       0.0557
     72 H25        41.7735  -10.1253   13.5364 H           1 MOL       0.0599
     73 H26        43.5411   -9.0721   12.2561 H           1 MOL       0.0559
     74 H27        42.9839   -7.5567   10.4412 H           1 MOL       0.0599
     75 H28        40.6721   -7.0925    9.9141 H           1 MOL       0.0557
     76 H29        36.5830   -6.4939   12.5177 H           1 MOL       0.1852
     77 H30        37.7988   -2.4451   13.8903 H           1 MOL       0.0576
     78 H31        35.6333   -6.0527   14.2744 H           1 MOL       0.0566
     79 H32        35.0787   -5.7172   17.7085 H           1 MOL       0.0517
     80 H33        33.7218   -6.7883   17.3427 H           1 MOL       0.0517
     81 H34        33.4232   -5.1871   18.0528 H           1 MOL       0.0517
     82 H35        30.2933   -6.1643   15.0745 H           1 MOL       0.0487
     83 H36        30.9489   -6.3632   16.7297 H           1 MOL       0.0487
     84 H37        31.6484   -7.2961   15.3709 H           1 MOL       0.0487
     85 H38        34.5573   -2.7141   16.5429 H           1 MOL       0.0566
     86 H39        37.2351   -1.8532   17.3602 H           1 MOL       0.1875
     87 H40        37.3780    1.0452   16.9426 H           1 MOL       0.0716
     88 H41        39.3726    0.8592   18.4038 H           1 MOL       0.0274
     89 H42        39.5409   -0.2412   17.0372 H           1 MOL       0.0274
     90 H43        39.0820   -0.8752   18.6376 H           1 MOL       0.0274
     91 H44        38.0049    1.6493   19.8020 H           1 MOL       0.0557
     92 H45        36.6413    2.0832   21.7463 H           1 MOL       0.0599
     93 H46        34.4094    1.1406   21.9114 H           1 MOL       0.0559
     94 H47        33.5299   -0.2136   20.1021 H           1 MOL       0.0599
     95 H48        34.8519   -0.6434   18.1582 H           1 MOL       0.0557
@<TRIPOS>BOND
     1     1     2   1
     2     2     3   1
     3     2     4   1
     4     4     5   1
     5     5     6  am
     6     6     7   2
     7     6     8   1
     8     8     9   1
     9     8    12   1
    10     9    10   1
    11     9    11   1
    12    12    13   1
    13    13    14   1
    14    14    15   1
    15    14    22   1
    16    15    16   1
    17    16    17  ar
    18    16    21  ar
    19    17    18  ar
    20    18    19  ar
    21    19    20  ar
    22    20    21  ar
    23    22    23  am
    24    23    24   2
    25    23    25   1
    26    25    26  ar
    27    25    27  ar
    28    26    36  ar
    29    27    28  ar
    30    28    29   1
    31    28    35  ar
    32    29    30   1
    33    29    31  am
    34    31    32   2
    35    31    33   2
    36    31    34   1
    37    35    36  ar
    38    36    37   1
    39    37    38   2
    40    37    39  am
    41    39    40   1
    42    40    41   1
    43    40    42   1
    44    42    43  ar
    45    42    47  ar
    46    43    44  ar
    47    44    45  ar
    48    45    46  ar
    49    46    47  ar
    50     1    48   1
    51     1    49   1
    52     1    50   1
    53     2    51   1
    54     3    52   1
    55     3    53   1
    56     3    54   1
    57     4    55   1
    58     4    56   1
    59     5    57   1
    60     8    58   1
    61     9    59   1
    62    10    60   1
    63    10    61   1
    64    10    62   1
    65    11    63   1
    66    12    64   1
    67    12    65   1
    68    13    66   1
    69    13    67   1
    70    14    68   1
    71    15    69   1
    72    15    70   1
    73    17    71   1
    74    18    72   1
    75    19    73   1
    76    20    74   1
    77    21    75   1
    78    22    76   1
    79    26    77   1
    80    27    78   1
    81    30    79   1
    82    30    80   1
    83    30    81   1
    84    34    82   1
    85    34    83   1
    86    34    84   1
    87    35    85   1
    88    39    86   1
    89    40    87   1
    90    41    88   1
    91    41    89   1
    92    41    90   1
    93    43    91   1
    94    44    92   1
    95    45    93   1
    96    46    94   1
    97    47    95   1
@<TRIPOS>SUBSTRUCTURE
     1  MOL      1

