@<TRIPOS>MOLECULE
4gid_ligand_079
    95    97
SMALL
GAST_HUCK
****
This file was generated by PARSER (from files_GN.cpp)

@<TRIPOS>ATOM
      1 CBK        38.5143   -2.3618   13.4183 C.3         1 MOL      -0.0608
      2 CBL        39.6467   -3.3241   13.8682 C.3         1 MOL      -0.0265
      3 CBM        39.5870   -4.6478   13.0606 C.3         1 MOL      -0.0608
      4 CBN        41.0656   -2.6738   13.8194 C.3         1 MOL       0.0334
      5 NBO        41.5783   -2.5877   12.4845 N.am        1 MOL      -0.2820
      6 CBP        42.6532   -3.1965   11.9882 C.2         1 MOL       0.2271
      7 OBV        43.4292   -3.8329   12.6913 O.2         1 MOL      -0.3908
      8 CBG        42.9421   -3.1127   10.5568 C.3         1 MOL       0.0928
      9 CBH        42.9882   -4.5150    9.8430 C.3         1 MOL       0.1121
     10 CBJ        41.8266   -5.4954   10.1437 C.3         1 MOL      -0.0314
     11 OBI        43.0034   -4.2947    8.4270 O.3         1 MOL      -0.3840
     12 NBF        44.1482   -2.2404   10.3514 N.4         1 MOL       0.2497
     13 CAX        45.4424   -2.8415    9.9280 C.3         1 MOL      -0.0062
     14 CAW        46.5801   -1.7842    9.8075 C.3         1 MOL       0.0906
     15 CAY        47.7229   -2.1847    8.8106 C.3         1 MOL       0.0089
     16 CAZ        48.8781   -2.9622    9.3503 C.ar        1 MOL      -0.0406
     17 CBA        48.7079   -4.2999    9.7783 C.ar        1 MOL      -0.0603
     18 CBB        49.7946   -5.0324   10.2907 C.ar        1 MOL      -0.0686
     19 CBC        51.0653   -4.4423   10.3790 C.ar        1 MOL      -0.0687
     20 CBD        51.2578   -3.1234    9.9290 C.ar        1 MOL      -0.0686
     21 CBE        50.1743   -2.3946    9.4082 C.ar        1 MOL      -0.0603
     22 NAV        47.1148   -1.5456   11.1142 N.am        1 MOL      -0.2761
     23 CAT        47.2960   -0.3910   11.7370 C.2         1 MOL       0.2026
     24 OAU        46.9288    0.6590   11.2052 O.2         1 MOL      -0.3847
     25 CAP        47.9794   -0.3538   12.9492 C.ar        1 MOL       0.0397
     26 CAQ        48.8791    0.7045   13.2315 C.ar        1 MOL      -0.0393
     27 CAO        47.8542   -1.3911   13.9115 C.ar        1 MOL      -0.0214
     28 CAN        48.5893   -1.3633   15.1162 C.ar        1 MOL       0.0754
     29 NAE        48.5113   -2.3995   15.9927 N.am        1 MOL      -0.1796
     30 CBT        47.4755   -2.4648   16.9814 C.3         1 MOL       0.0445
     31 SAB        49.7122   -3.5914   15.9470 S.o2        1 MOL       0.0593
     32 OAC        50.4774   -3.6197   17.3398 O.2         1 MOL      -0.1500
     33 OAD        49.0432   -5.0120   15.6964 O.2         1 MOL      -0.1500
     34 CAA        50.9768   -3.3615   14.6758 C.3         1 MOL       0.0790
     35 CAS        49.4521   -0.2841   15.3810 C.ar        1 MOL      -0.0214
     36 CAR        49.6238    0.7450   14.4353 C.ar        1 MOL       0.0398
     37 CAL        50.5255    1.7592   14.6773 C.2         1 MOL       0.2041
     38 OAM        50.3474    2.4747   15.6537 O.2         1 MOL      -0.3845
     39 NBQ        51.6004    1.8812   13.9019 N.am        1 MOL      -0.2723
     40 CBR        52.6446    2.8491   14.0733 C.3         1 MOL       0.0723
     41 CBS        52.1867    4.2466   13.5734 C.3         1 MOL      -0.0320
     42 CAI        53.9071    2.3147   13.4692 C.ar        1 MOL      -0.0183
     43 CAH        54.6644    1.3666   14.2008 C.ar        1 MOL      -0.0582
     44 CAG        55.8759    0.8620   13.7015 C.ar        1 MOL      -0.0685
     45 CAF        56.3502    1.2908   12.4498 C.ar        1 MOL      -0.0687
     46 CAK        55.6070    2.2143   11.6976 C.ar        1 MOL      -0.0685
     47 CAJ        54.3941    2.7194   12.1991 C.ar        1 MOL      -0.0582
     48 H1         37.5476   -2.8644   13.4955 H           1 MOL       0.0233
     49 H2         38.6616   -2.0495   12.3837 H           1 MOL       0.0233
     50 H3         38.4843   -1.4746   14.0532 H           1 MOL       0.0233
     51 H4         39.4478   -3.5723   14.9149 H           1 MOL       0.0315
     52 H5         40.4418   -5.2841   13.2987 H           1 MOL       0.0233
     53 H6         39.5975   -4.4443   11.9865 H           1 MOL       0.0233
     54 H7         38.6745   -5.1964   13.3014 H           1 MOL       0.0233
     55 H8         41.7287   -3.2534   14.4707 H           1 MOL       0.0522
     56 H9         41.0251   -1.6619   14.2291 H           1 MOL       0.0522
     57 H10        41.0541   -2.0570   11.8664 H           1 MOL       0.1853
     58 H11        42.1114   -2.5703   10.0821 H           1 MOL       0.1125
     59 H12        43.9217   -5.0211   10.1206 H           1 MOL       0.0674
     60 H13        41.9333   -6.3840    9.5159 H           1 MOL       0.0258
     61 H14        40.8625   -5.0287    9.9302 H           1 MOL       0.0258
     62 H15        41.8616   -5.8049   11.1895 H           1 MOL       0.0258
     63 H16        43.1614   -5.1836    8.0314 H           1 MOL       0.2102
     64 H17        44.3095   -1.7239   11.2183 H           1 MOL       0.2037
     65 H18        43.8775   -1.5551    9.6408 H           1 MOL       0.2037
     66 H19        45.2790   -3.3081    8.9555 H           1 MOL       0.0839
     67 H20        45.7292   -3.6250   10.6362 H           1 MOL       0.0839
     68 H21        46.1159   -0.8810    9.3983 H           1 MOL       0.0632
     69 H22        48.1001   -1.2557    8.3729 H           1 MOL       0.0450
     70 H23        47.3124   -2.7490    7.9686 H           1 MOL       0.0450
     71 H24        47.7957   -4.7506    9.7089 H           1 MOL       0.0557
     72 H25        49.6597   -5.9983   10.5949 H           1 MOL       0.0599
     73 H26        51.8513   -4.9727   10.7594 H           1 MOL       0.0559
     74 H27        52.1831   -2.6952    9.9711 H           1 MOL       0.0599
     75 H28        50.3434   -1.4447    9.0690 H           1 MOL       0.0557
     76 H29        47.4725   -2.3309   11.5596 H           1 MOL       0.1852
     77 H30        49.0118    1.4557   12.5431 H           1 MOL       0.0576
     78 H31        47.2281   -2.1805   13.7380 H           1 MOL       0.0566
     79 H32        46.7685   -1.6333   16.9033 H           1 MOL       0.0517
     80 H33        47.9116   -2.4381   17.9826 H           1 MOL       0.0517
     81 H34        46.9121   -3.3929   16.8712 H           1 MOL       0.0517
     82 H35        51.6948   -4.1789   14.7259 H           1 MOL       0.0487
     83 H36        51.5014   -2.4215   14.8448 H           1 MOL       0.0487
     84 H37        50.5191   -3.3453   13.6867 H           1 MOL       0.0487
     85 H38        49.9928   -0.2811   16.2506 H           1 MOL       0.0566
     86 H39        51.7196    1.2178   13.2050 H           1 MOL       0.1875
     87 H40        52.8490    2.9782   15.1483 H           1 MOL       0.0716
     88 H41        53.0192    4.9490   13.6310 H           1 MOL       0.0274
     89 H42        51.3779    4.6209   14.2020 H           1 MOL       0.0274
     90 H43        51.8325    4.1941   12.5445 H           1 MOL       0.0274
     91 H44        54.3404    1.0454   15.1177 H           1 MOL       0.0557
     92 H45        56.4144    0.1922   14.2491 H           1 MOL       0.0599
     93 H46        57.2312    0.9286   12.0856 H           1 MOL       0.0559
     94 H47        55.9484    2.5276   10.7855 H           1 MOL       0.0599
     95 H48        53.8752    3.3876   11.6271 H           1 MOL       0.0557
@<TRIPOS>BOND
     1     1     2   1
     2     2     3   1
     3     2     4   1
     4     4     5   1
     5     5     6  am
     6     6     7   2
     7     6     8   1
     8     8     9   1
     9     8    12   1
    10     9    10   1
    11     9    11   1
    12    12    13   1
    13    13    14   1
    14    14    15   1
    15    14    22   1
    16    15    16   1
    17    16    17  ar
    18    16    21  ar
    19    17    18  ar
    20    18    19  ar
    21    19    20  ar
    22    20    21  ar
    23    22    23  am
    24    23    24   2
    25    23    25   1
    26    25    26  ar
    27    25    27  ar
    28    26    36  ar
    29    27    28  ar
    30    28    29   1
    31    28    35  ar
    32    29    30   1
    33    29    31  am
    34    31    32   2
    35    31    33   2
    36    31    34   1
    37    35    36  ar
    38    36    37   1
    39    37    38   2
    40    37    39  am
    41    39    40   1
    42    40    41   1
    43    40    42   1
    44    42    43  ar
    45    42    47  ar
    46    43    44  ar
    47    44    45  ar
    48    45    46  ar
    49    46    47  ar
    50     1    48   1
    51     1    49   1
    52     1    50   1
    53     2    51   1
    54     3    52   1
    55     3    53   1
    56     3    54   1
    57     4    55   1
    58     4    56   1
    59     5    57   1
    60     8    58   1
    61     9    59   1
    62    10    60   1
    63    10    61   1
    64    10    62   1
    65    11    63   1
    66    12    64   1
    67    12    65   1
    68    13    66   1
    69    13    67   1
    70    14    68   1
    71    15    69   1
    72    15    70   1
    73    17    71   1
    74    18    72   1
    75    19    73   1
    76    20    74   1
    77    21    75   1
    78    22    76   1
    79    26    77   1
    80    27    78   1
    81    30    79   1
    82    30    80   1
    83    30    81   1
    84    34    82   1
    85    34    83   1
    86    34    84   1
    87    35    85   1
    88    39    86   1
    89    40    87   1
    90    41    88   1
    91    41    89   1
    92    41    90   1
    93    43    91   1
    94    44    92   1
    95    45    93   1
    96    46    94   1
    97    47    95   1
@<TRIPOS>SUBSTRUCTURE
     1  MOL      1

