@<TRIPOS>MOLECULE
4gid_ligand_002
    95    97
SMALL
GAST_HUCK
****
This file was generated by PARSER (from files_GN.cpp)

@<TRIPOS>ATOM
      1 CBK        48.5381   -4.1361   10.2667 C.3         1 MOL      -0.0608
      2 CBL        47.7349   -2.8207   10.0681 C.3         1 MOL      -0.0265
      3 CBM        46.2717   -3.1086    9.6283 C.3         1 MOL      -0.0608
      4 CBN        47.7904   -1.9531   11.3597 C.3         1 MOL       0.0334
      5 NBO        46.8886   -0.8412   11.2935 N.am        1 MOL      -0.2820
      6 CBP        45.6121   -0.8342   11.6662 C.2         1 MOL       0.2271
      7 OBV        45.0779   -1.8434   12.1403 O.2         1 MOL      -0.3908
      8 CBG        44.8111    0.3811   11.4937 C.3         1 MOL       0.0928
      9 CBH        45.2412    1.5238   12.4818 C.3         1 MOL       0.1121
     10 CBJ        45.3445    2.9122   11.7902 C.3         1 MOL      -0.0314
     11 OBI        44.3346    1.6825   13.5718 O.3         1 MOL      -0.3840
     12 NBF        43.3289    0.2172   11.3922 N.4         1 MOL       0.2497
     13 CAX        42.5025   -0.6139   12.3101 C.3         1 MOL      -0.0062
     14 CAW        42.3459   -2.1543   12.0318 C.3         1 MOL       0.0906
     15 CAY        42.6483   -2.5884   10.5687 C.3         1 MOL       0.0089
     16 CAZ        42.5783   -4.0387   10.2059 C.ar        1 MOL      -0.0406
     17 CBA        42.7864   -5.0754   11.1454 C.ar        1 MOL      -0.0603
     18 CBB        42.7566   -6.4269   10.7561 C.ar        1 MOL      -0.0686
     19 CBC        42.5501   -6.7670    9.4101 C.ar        1 MOL      -0.0687
     20 CBD        42.3511   -5.7589    8.4544 C.ar        1 MOL      -0.0686
     21 CBE        42.3778   -4.4109    8.8511 C.ar        1 MOL      -0.0603
     22 NAV        41.0331   -2.6207   12.3902 N.am        1 MOL      -0.2761
     23 CAT        40.6349   -3.0757   13.5808 C.2         1 MOL       0.2026
     24 OAU        41.4483   -3.1572   14.5052 O.2         1 MOL      -0.3847
     25 CAP        39.3222   -3.4779   13.8052 C.ar        1 MOL       0.0397
     26 CAQ        38.6371   -4.3187   12.8984 C.ar        1 MOL      -0.0393
     27 CAO        38.6210   -3.0311   14.9558 C.ar        1 MOL      -0.0214
     28 CAN        37.2805   -3.4020   15.1840 C.ar        1 MOL       0.0754
     29 NAE        36.6060   -2.8751   16.2491 N.am        1 MOL      -0.1796
     30 CBT        37.0093   -3.1343   17.6010 C.3         1 MOL       0.0445
     31 SAB        35.3415   -1.7971   15.9453 S.o2        1 MOL       0.0593
     32 OAC        35.3311   -0.6652   17.0672 O.2         1 MOL      -0.1500
     33 OAD        35.6146   -1.0048   14.5908 O.2         1 MOL      -0.1500
     34 CAA        33.7307   -2.5922   15.8523 C.3         1 MOL       0.0790
     35 CAS        36.6369   -4.2588   14.2740 C.ar        1 MOL      -0.0214
     36 CAR        37.2988   -4.7411   13.1137 C.ar        1 MOL       0.0398
     37 CAL        36.6403   -5.5900   12.2281 C.2         1 MOL       0.2041
     38 OAM        35.9042   -6.4650   12.6735 O.2         1 MOL      -0.3845
     39 NBQ        36.7264   -5.4090   10.9103 N.am        1 MOL      -0.2723
     40 CBR        35.9940   -6.1131    9.8961 C.3         1 MOL       0.0723
     41 CBS        36.9587   -6.5691    8.7727 C.3         1 MOL      -0.0320
     42 CAI        34.8917   -5.2375    9.3834 C.ar        1 MOL      -0.0183
     43 CAH        35.1522   -3.9125    8.9618 C.ar        1 MOL      -0.0582
     44 CAG        34.1180   -3.0863    8.4802 C.ar        1 MOL      -0.0685
     45 CAF        32.7999   -3.5798    8.4183 C.ar        1 MOL      -0.0687
     46 CAK        32.5183   -4.8819    8.8449 C.ar        1 MOL      -0.0685
     47 CAJ        33.5574   -5.7089    9.3323 C.ar        1 MOL      -0.0582
     48 H1         48.5626   -4.7081    9.3404 H           1 MOL       0.0233
     49 H2         48.0881   -4.7518   11.0495 H           1 MOL       0.0233
     50 H3         49.5659   -3.9061   10.5519 H           1 MOL       0.0233
     51 H4         48.2172   -2.2573    9.2589 H           1 MOL       0.0315
     52 H5         45.7812   -2.1855    9.3172 H           1 MOL       0.0233
     53 H6         45.6945   -3.5415   10.4502 H           1 MOL       0.0233
     54 H7         46.2518   -3.7950    8.7802 H           1 MOL       0.0233
     55 H8         48.7962   -1.5430   11.4796 H           1 MOL       0.0522
     56 H9         47.5885   -2.5890   12.2317 H           1 MOL       0.0522
     57 H10        47.2457   -0.0121   10.9131 H           1 MOL       0.1853
     58 H11        45.0585    0.7464   10.4882 H           1 MOL       0.1125
     59 H12        46.2360    1.3126   12.8996 H           1 MOL       0.0674
     60 H13        45.5880    3.6827   12.5274 H           1 MOL       0.0258
     61 H14        44.3952    3.1597   11.3159 H           1 MOL       0.0258
     62 H15        46.1329    2.8979   11.0302 H           1 MOL       0.0258
     63 H16        44.3436    0.8171   14.0204 H           1 MOL       0.2102
     64 H17        43.1075   -0.0871   10.4425 H           1 MOL       0.2037
     65 H18        42.9459    1.1690   11.4699 H           1 MOL       0.2037
     66 H19        41.5059   -0.1713   12.2523 H           1 MOL       0.0839
     67 H20        42.8191   -0.4743   13.3446 H           1 MOL       0.0839
     68 H21        43.0670   -2.6660   12.6651 H           1 MOL       0.0632
     69 H22        43.6515   -2.2553   10.3119 H           1 MOL       0.0450
     70 H23        41.9635   -2.0399    9.9216 H           1 MOL       0.0450
     71 H24        42.9693   -4.8720   12.1269 H           1 MOL       0.0557
     72 H25        42.8922   -7.1623   11.4507 H           1 MOL       0.0599
     73 H26        42.5364   -7.7491    9.1333 H           1 MOL       0.0559
     74 H27        42.1893   -6.0046    7.4740 H           1 MOL       0.0599
     75 H28        42.2537   -3.6972    8.1369 H           1 MOL       0.0557
     76 H29        40.3485   -2.5589   11.6968 H           1 MOL       0.1852
     77 H30        39.1381   -4.6793   12.0795 H           1 MOL       0.0576
     78 H31        39.0722   -2.3889   15.6120 H           1 MOL       0.0566
     79 H32        37.8376   -3.8449   17.6605 H           1 MOL       0.0517
     80 H33        36.1701   -3.5518   18.1622 H           1 MOL       0.0517
     81 H34        37.3316   -2.2072   18.0817 H           1 MOL       0.0517
     82 H35        32.9488   -1.8374   15.7842 H           1 MOL       0.0487
     83 H36        33.5789   -3.1956   16.7467 H           1 MOL       0.0487
     84 H37        33.6893   -3.2338   14.9728 H           1 MOL       0.0487
     85 H38        35.6626   -4.5272   14.4482 H           1 MOL       0.0566
     86 H39        37.2802   -4.6722   10.6027 H           1 MOL       0.1875
     87 H40        35.5709   -7.0359   10.3065 H           1 MOL       0.0716
     88 H41        36.4100   -7.1197    8.0056 H           1 MOL       0.0274
     89 H42        37.7243   -7.2288    9.1874 H           1 MOL       0.0274
     90 H43        37.4542   -5.7177    8.3050 H           1 MOL       0.0274
     91 H44        36.1003   -3.5305    9.0077 H           1 MOL       0.0557
     92 H45        34.3254   -2.1356    8.1755 H           1 MOL       0.0599
     93 H46        32.0508   -2.9835    8.0590 H           1 MOL       0.0559
     94 H47        31.5622   -5.2437    8.8016 H           1 MOL       0.0599
     95 H48        33.3220   -6.6526    9.6443 H           1 MOL       0.0557
@<TRIPOS>BOND
     1     1     2   1
     2     2     3   1
     3     2     4   1
     4     4     5   1
     5     5     6  am
     6     6     7   2
     7     6     8   1
     8     8     9   1
     9     8    12   1
    10     9    10   1
    11     9    11   1
    12    12    13   1
    13    13    14   1
    14    14    15   1
    15    14    22   1
    16    15    16   1
    17    16    17  ar
    18    16    21  ar
    19    17    18  ar
    20    18    19  ar
    21    19    20  ar
    22    20    21  ar
    23    22    23  am
    24    23    24   2
    25    23    25   1
    26    25    26  ar
    27    25    27  ar
    28    26    36  ar
    29    27    28  ar
    30    28    29   1
    31    28    35  ar
    32    29    30   1
    33    29    31  am
    34    31    32   2
    35    31    33   2
    36    31    34   1
    37    35    36  ar
    38    36    37   1
    39    37    38   2
    40    37    39  am
    41    39    40   1
    42    40    41   1
    43    40    42   1
    44    42    43  ar
    45    42    47  ar
    46    43    44  ar
    47    44    45  ar
    48    45    46  ar
    49    46    47  ar
    50     1    48   1
    51     1    49   1
    52     1    50   1
    53     2    51   1
    54     3    52   1
    55     3    53   1
    56     3    54   1
    57     4    55   1
    58     4    56   1
    59     5    57   1
    60     8    58   1
    61     9    59   1
    62    10    60   1
    63    10    61   1
    64    10    62   1
    65    11    63   1
    66    12    64   1
    67    12    65   1
    68    13    66   1
    69    13    67   1
    70    14    68   1
    71    15    69   1
    72    15    70   1
    73    17    71   1
    74    18    72   1
    75    19    73   1
    76    20    74   1
    77    21    75   1
    78    22    76   1
    79    26    77   1
    80    27    78   1
    81    30    79   1
    82    30    80   1
    83    30    81   1
    84    34    82   1
    85    34    83   1
    86    34    84   1
    87    35    85   1
    88    39    86   1
    89    40    87   1
    90    41    88   1
    91    41    89   1
    92    41    90   1
    93    43    91   1
    94    44    92   1
    95    45    93   1
    96    46    94   1
    97    47    95   1
@<TRIPOS>SUBSTRUCTURE
     1  MOL      1

