@<TRIPOS>MOLECULE
4gid_ligand_027
    95    97
SMALL
GAST_HUCK
****
This file was generated by PARSER (from files_GN.cpp)

@<TRIPOS>ATOM
      1 CBK        45.3000    1.9127   13.0475 C.3         1 MOL      -0.0608
      2 CBL        44.9877    1.8531   11.5305 C.3         1 MOL      -0.0265
      3 CBM        46.1875    1.2571   10.7349 C.3         1 MOL      -0.0608
      4 CBN        43.6291    1.1333   11.2260 C.3         1 MOL       0.0334
      5 NBO        43.7472   -0.2509   10.8853 N.am        1 MOL      -0.2820
      6 CBP        43.2990   -1.3007   11.5617 C.2         1 MOL       0.2271
      7 OBV        42.7038   -1.1361   12.6205 O.2         1 MOL      -0.3908
      8 CBG        43.3951   -2.6449   10.9936 C.3         1 MOL       0.0928
      9 CBH        44.8334   -3.0769   10.5565 C.3         1 MOL       0.1121
     10 CBJ        45.3772   -2.4320    9.2536 C.3         1 MOL      -0.0314
     11 OBI        45.7569   -2.8569   11.6186 O.3         1 MOL      -0.3840
     12 NBF        42.3211   -2.7720    9.9632 N.4         1 MOL       0.2497
     13 CAX        42.1813   -3.9788    9.1095 C.3         1 MOL      -0.0062
     14 CAW        41.7395   -5.2979    9.8219 C.3         1 MOL       0.0906
     15 CAY        41.1722   -6.3276    8.7831 C.3         1 MOL       0.0089
     16 CAZ        40.3768   -7.4370    9.3929 C.ar        1 MOL      -0.0406
     17 CBA        38.9927   -7.5529    9.1239 C.ar        1 MOL      -0.0603
     18 CBB        38.2214   -8.5507    9.7442 C.ar        1 MOL      -0.0686
     19 CBC        38.8282   -9.4462   10.6447 C.ar        1 MOL      -0.0687
     20 CBD        40.2047   -9.3423   10.9205 C.ar        1 MOL      -0.0686
     21 CBE        40.9733   -8.3384   10.3016 C.ar        1 MOL      -0.0603
     22 NAV        40.7684   -5.0141   10.8506 N.am        1 MOL      -0.2761
     23 CAT        40.9982   -4.8670   12.1547 C.2         1 MOL       0.2026
     24 OAU        42.1374   -4.9329   12.6041 O.2         1 MOL      -0.3847
     25 CAP        39.9699   -4.4373   12.9846 C.ar        1 MOL       0.0397
     26 CAQ        38.6575   -4.9439   12.8435 C.ar        1 MOL      -0.0393
     27 CAO        40.2110   -3.4611   13.9791 C.ar        1 MOL      -0.0214
     28 CAN        39.1693   -2.9916   14.8071 C.ar        1 MOL       0.0754
     29 NAE        39.4180   -2.0108   15.7219 N.am        1 MOL      -0.1796
     30 CBT        39.3649   -0.6262   15.3545 C.3         1 MOL       0.0445
     31 SAB        39.8493   -2.4691   17.2917 S.o2        1 MOL       0.0593
     32 OAC        41.0243   -3.5390   17.2527 O.2         1 MOL      -0.1500
     33 OAD        40.4886   -1.2381   18.0636 O.2         1 MOL      -0.1500
     34 CAA        38.4701   -3.0653   18.2886 C.3         1 MOL       0.0790
     35 CAS        37.8701   -3.5194   14.6437 C.ar        1 MOL      -0.0214
     36 CAR        37.5922   -4.5230   13.6787 C.ar        1 MOL       0.0398
     37 CAL        36.3033   -5.0514   13.5450 C.2         1 MOL       0.2041
     38 OAM        35.3794   -4.5464   14.1718 O.2         1 MOL      -0.3845
     39 NBQ        36.0732   -6.1285   12.7975 N.am        1 MOL      -0.2723
     40 CBR        34.8225   -6.7725   12.4971 C.3         1 MOL       0.0723
     41 CBS        34.4330   -6.4162   11.0344 C.3         1 MOL      -0.0320
     42 CAI        33.7811   -6.6099   13.5725 C.ar        1 MOL      -0.0183
     43 CAH        33.9968   -7.2180   14.8353 C.ar        1 MOL      -0.0582
     44 CAG        33.0721   -7.0708   15.8844 C.ar        1 MOL      -0.0685
     45 CAF        31.8976   -6.3266   15.6885 C.ar        1 MOL      -0.0687
     46 CAK        31.6541   -5.7224   14.4458 C.ar        1 MOL      -0.0685
     47 CAJ        32.5872   -5.8581   13.4009 C.ar        1 MOL      -0.0582
     48 H1         46.2105    2.4909   13.2190 H           1 MOL       0.0233
     49 H2         45.4415    0.9091   13.4523 H           1 MOL       0.0233
     50 H3         44.4807    2.4011   13.5866 H           1 MOL       0.0233
     51 H4         44.8672    2.8864   11.1981 H           1 MOL       0.0315
     52 H5         45.9291    1.1312    9.6780 H           1 MOL       0.0233
     53 H6         46.4767    0.2832   11.1427 H           1 MOL       0.0233
     54 H7         47.0492    1.9303   10.7996 H           1 MOL       0.0233
     55 H8         43.1703    1.6269   10.3562 H           1 MOL       0.0522
     56 H9         42.9226    1.2753   12.0563 H           1 MOL       0.0522
     57 H10        44.1619   -0.4317   10.0266 H           1 MOL       0.1853
     58 H11        43.1393   -3.3417   11.7849 H           1 MOL       0.1125
     59 H12        44.8200   -4.1566   10.3943 H           1 MOL       0.0674
     60 H13        46.3565   -2.8706    9.0114 H           1 MOL       0.0258
     61 H14        45.5066   -1.3488    9.3627 H           1 MOL       0.0258
     62 H15        44.6895   -2.6296    8.4219 H           1 MOL       0.0258
     63 H16        46.6515   -2.8896   11.2069 H           1 MOL       0.2102
     64 H17        42.3994   -1.9834    9.3315 H           1 MOL       0.2037
     65 H18        41.4320   -2.6673   10.4502 H           1 MOL       0.2037
     66 H19        43.1030   -4.1641    8.5531 H           1 MOL       0.0839
     67 H20        41.4233   -3.7127    8.3627 H           1 MOL       0.0839
     68 H21        42.6408   -5.7475   10.2543 H           1 MOL       0.0632
     69 H22        41.9948   -6.7605    8.2085 H           1 MOL       0.0450
     70 H23        40.5395   -5.8027    8.0564 H           1 MOL       0.0450
     71 H24        38.5285   -6.9034    8.4849 H           1 MOL       0.0557
     72 H25        37.2215   -8.6239    9.5464 H           1 MOL       0.0599
     73 H26        38.2631  -10.1663   11.1028 H           1 MOL       0.0559
     74 H27        40.6389   -9.9907   11.5779 H           1 MOL       0.0599
     75 H28        41.9721   -8.2706   10.5205 H           1 MOL       0.0557
     76 H29        39.8560   -4.8808   10.5413 H           1 MOL       0.1852
     77 H30        38.4769   -5.6278   12.1024 H           1 MOL       0.0576
     78 H31        41.1473   -3.0503   14.0814 H           1 MOL       0.0566
     79 H32        39.0329   -0.4809   14.3230 H           1 MOL       0.0517
     80 H33        40.3583   -0.1859   15.4525 H           1 MOL       0.0517
     81 H34        38.6728   -0.0937   16.0089 H           1 MOL       0.0517
     82 H35        38.8109   -3.2747   19.3014 H           1 MOL       0.0487
     83 H36        38.0641   -3.9747   17.8494 H           1 MOL       0.0487
     84 H37        37.6938   -2.3018   18.3187 H           1 MOL       0.0487
     85 H38        37.1304   -3.1790   15.2629 H           1 MOL       0.0566
     86 H39        36.8398   -6.5267   12.3621 H           1 MOL       0.1875
     87 H40        35.0446   -7.8445   12.4633 H           1 MOL       0.0716
     88 H41        33.5259   -6.9475   10.7399 H           1 MOL       0.0274
     89 H42        35.2339   -6.7108   10.3541 H           1 MOL       0.0274
     90 H43        34.2688   -5.3432   10.9259 H           1 MOL       0.0274
     91 H44        34.8496   -7.7580   15.0051 H           1 MOL       0.0557
     92 H45        33.2559   -7.5013   16.7935 H           1 MOL       0.0599
     93 H46        31.2249   -6.2106   16.4536 H           1 MOL       0.0559
     94 H47        30.8053   -5.1760   14.2986 H           1 MOL       0.0599
     95 H48        32.3958   -5.3808   12.5225 H           1 MOL       0.0557
@<TRIPOS>BOND
     1     1     2   1
     2     2     3   1
     3     2     4   1
     4     4     5   1
     5     5     6  am
     6     6     7   2
     7     6     8   1
     8     8     9   1
     9     8    12   1
    10     9    10   1
    11     9    11   1
    12    12    13   1
    13    13    14   1
    14    14    15   1
    15    14    22   1
    16    15    16   1
    17    16    17  ar
    18    16    21  ar
    19    17    18  ar
    20    18    19  ar
    21    19    20  ar
    22    20    21  ar
    23    22    23  am
    24    23    24   2
    25    23    25   1
    26    25    26  ar
    27    25    27  ar
    28    26    36  ar
    29    27    28  ar
    30    28    29   1
    31    28    35  ar
    32    29    30   1
    33    29    31  am
    34    31    32   2
    35    31    33   2
    36    31    34   1
    37    35    36  ar
    38    36    37   1
    39    37    38   2
    40    37    39  am
    41    39    40   1
    42    40    41   1
    43    40    42   1
    44    42    43  ar
    45    42    47  ar
    46    43    44  ar
    47    44    45  ar
    48    45    46  ar
    49    46    47  ar
    50     1    48   1
    51     1    49   1
    52     1    50   1
    53     2    51   1
    54     3    52   1
    55     3    53   1
    56     3    54   1
    57     4    55   1
    58     4    56   1
    59     5    57   1
    60     8    58   1
    61     9    59   1
    62    10    60   1
    63    10    61   1
    64    10    62   1
    65    11    63   1
    66    12    64   1
    67    12    65   1
    68    13    66   1
    69    13    67   1
    70    14    68   1
    71    15    69   1
    72    15    70   1
    73    17    71   1
    74    18    72   1
    75    19    73   1
    76    20    74   1
    77    21    75   1
    78    22    76   1
    79    26    77   1
    80    27    78   1
    81    30    79   1
    82    30    80   1
    83    30    81   1
    84    34    82   1
    85    34    83   1
    86    34    84   1
    87    35    85   1
    88    39    86   1
    89    40    87   1
    90    41    88   1
    91    41    89   1
    92    41    90   1
    93    43    91   1
    94    44    92   1
    95    45    93   1
    96    46    94   1
    97    47    95   1
@<TRIPOS>SUBSTRUCTURE
     1  MOL      1

