@<TRIPOS>MOLECULE
4gid_ligand_090
    95    97
SMALL
GAST_HUCK
****
This file was generated by PARSER (from files_GN.cpp)

@<TRIPOS>ATOM
      1 CBK        52.7453   -0.4409   11.0915 C.3         1 MOL      -0.0608
      2 CBL        53.6658   -0.5079    9.8440 C.3         1 MOL      -0.0265
      3 CBM        54.9702   -1.2939   10.1445 C.3         1 MOL      -0.0608
      4 CBN        52.9328   -1.0312    8.5727 C.3         1 MOL       0.0334
      5 NBO        52.7066   -2.4499    8.5239 N.am        1 MOL      -0.2820
      6 CBP        51.5384   -3.0814    8.4585 C.2         1 MOL       0.2271
      7 OBV        50.4838   -2.4418    8.4800 O.2         1 MOL      -0.3908
      8 CBG        51.4520   -4.5357    8.3084 C.3         1 MOL       0.0928
      9 CBH        50.9612   -4.9884    6.8733 C.3         1 MOL       0.1121
     10 CBJ        49.9632   -6.1775    6.8322 C.3         1 MOL      -0.0314
     11 OBI        50.3633   -3.9532    6.0872 O.3         1 MOL      -0.3840
     12 NBF        50.6266   -5.1543    9.3861 N.4         1 MOL       0.2497
     13 CAX        51.0252   -5.0413   10.8153 C.3         1 MOL      -0.0062
     14 CAW        50.6456   -3.6891   11.4800 C.3         1 MOL       0.0906
     15 CAY        51.0550   -3.5575   12.9973 C.3         1 MOL       0.0089
     16 CAZ        49.9833   -3.1775   13.9723 C.ar        1 MOL      -0.0406
     17 CBA        49.6660   -4.0059   15.0793 C.ar        1 MOL      -0.0603
     18 CBB        48.6372   -3.6620   15.9748 C.ar        1 MOL      -0.0686
     19 CBC        47.8985   -2.4800   15.7792 C.ar        1 MOL      -0.0687
     20 CBD        48.2211   -1.6262   14.7093 C.ar        1 MOL      -0.0686
     21 CBE        49.2540   -1.9735   13.8153 C.ar        1 MOL      -0.0603
     22 NAV        49.2358   -3.4643   11.2856 N.am        1 MOL      -0.2761
     23 CAT        48.7088   -2.4562   10.6105 C.2         1 MOL       0.2026
     24 OAU        49.4414   -1.6628   10.0219 O.2         1 MOL      -0.3847
     25 CAP        47.3505   -2.2043   10.6219 C.ar        1 MOL       0.0397
     26 CAQ        46.8824   -0.9267   10.9938 C.ar        1 MOL      -0.0393
     27 CAO        46.4102   -3.1847   10.2373 C.ar        1 MOL      -0.0214
     28 CAN        45.0281   -2.8853   10.2010 C.ar        1 MOL       0.0754
     29 NAE        44.1370   -3.8117    9.7449 N.am        1 MOL      -0.1796
     30 CBT        44.0938   -4.1674    8.3549 C.3         1 MOL       0.0445
     31 SAB        42.9802   -4.4635   10.7949 S.o2        1 MOL       0.0593
     32 OAC        42.9439   -6.0436   10.6267 O.2         1 MOL      -0.1500
     33 OAD        43.4056   -4.2460   12.3132 O.2         1 MOL      -0.1500
     34 CAA        41.3221   -3.7881   10.5821 C.3         1 MOL       0.0790
     35 CAS        44.5908   -1.5986   10.5798 C.ar        1 MOL      -0.0214
     36 CAR        45.5052   -0.6090   11.0043 C.ar        1 MOL       0.0398
     37 CAL        45.0818    0.6457   11.4260 C.2         1 MOL       0.2041
     38 OAM        44.0855    1.1477   10.9162 O.2         1 MOL      -0.3845
     39 NBQ        45.7242    1.2827   12.4002 N.am        1 MOL      -0.2723
     40 CBR        45.3674    2.5353   13.0109 C.3         1 MOL       0.0723
     41 CBS        44.0204    2.3269   13.7565 C.3         1 MOL      -0.0320
     42 CAI        45.4366    3.7358   12.1089 C.ar        1 MOL      -0.0183
     43 CAH        46.2377    3.7253   10.9371 C.ar        1 MOL      -0.0582
     44 CAG        46.3537    4.8614   10.1174 C.ar        1 MOL      -0.0685
     45 CAF        45.6895    6.0493   10.4615 C.ar        1 MOL      -0.0687
     46 CAK        44.9300    6.1047   11.6373 C.ar        1 MOL      -0.0685
     47 CAJ        44.8109    4.9639   12.4499 C.ar        1 MOL      -0.0582
     48 H1         53.2558    0.0678   11.9127 H           1 MOL       0.0233
     49 H2         52.4743   -1.4417   11.4171 H           1 MOL       0.0233
     50 H3         51.8358    0.1155   10.8625 H           1 MOL       0.0233
     51 H4         53.9645    0.5281    9.6317 H           1 MOL       0.0315
     52 H5         55.5995   -1.3365    9.2533 H           1 MOL       0.0233
     53 H6         54.7470   -2.3158   10.4576 H           1 MOL       0.0233
     54 H7         55.5369   -0.8082   10.9396 H           1 MOL       0.0233
     55 H8         53.5774   -0.8007    7.7256 H           1 MOL       0.0522
     56 H9         52.0134   -0.4541    8.4334 H           1 MOL       0.0522
     57 H10        53.5035   -2.9879    8.3987 H           1 MOL       0.1853
     58 H11        52.4513   -4.9631    8.4167 H           1 MOL       0.1125
     59 H12        51.8416   -5.3165    6.3075 H           1 MOL       0.0674
     60 H13        49.7429   -6.4536    5.7977 H           1 MOL       0.0258
     61 H14        49.0177   -5.9110    7.3123 H           1 MOL       0.0258
     62 H15        50.3894   -7.0494    7.3356 H           1 MOL       0.0258
     63 H16        51.0002   -3.2058    6.1022 H           1 MOL       0.2102
     64 H17        50.6236   -6.1585    9.2086 H           1 MOL       0.2037
     65 H18        49.6647   -4.8244    9.2848 H           1 MOL       0.2037
     66 H19        52.0926   -5.2305   10.9253 H           1 MOL       0.0839
     67 H20        50.5131   -5.8447   11.3478 H           1 MOL       0.0839
     68 H21        51.2356   -2.9397   10.9465 H           1 MOL       0.0632
     69 H22        51.8311   -2.7960   13.0937 H           1 MOL       0.0450
     70 H23        51.5272   -4.4864   13.3222 H           1 MOL       0.0450
     71 H24        50.1874   -4.8701   15.2452 H           1 MOL       0.0557
     72 H25        48.4216   -4.2689   16.7719 H           1 MOL       0.0599
     73 H26        47.1485   -2.2293   16.4308 H           1 MOL       0.0559
     74 H27        47.7018   -0.7516   14.5831 H           1 MOL       0.0599
     75 H28        49.4690   -1.3398   13.0421 H           1 MOL       0.0557
     76 H29        48.6352   -4.0681   11.7483 H           1 MOL       0.1852
     77 H30        47.5616   -0.2105   11.2632 H           1 MOL       0.0576
     78 H31        46.7296   -4.1118    9.9445 H           1 MOL       0.0566
     79 H32        44.8658   -3.6639    7.7656 H           1 MOL       0.0517
     80 H33        43.1244   -3.8924    7.9332 H           1 MOL       0.0517
     81 H34        44.2359   -5.2429    8.2422 H           1 MOL       0.0517
     82 H35        40.6291   -4.2884   11.2606 H           1 MOL       0.0487
     83 H36        41.0020   -3.9499    9.5526 H           1 MOL       0.0487
     84 H37        41.3302   -2.7184   10.7945 H           1 MOL       0.0487
     85 H38        43.5864   -1.3896   10.5541 H           1 MOL       0.0566
     86 H39        46.4970    0.8363   12.7856 H           1 MOL       0.1875
     87 H40        46.1294    2.7013   13.7748 H           1 MOL       0.0716
     88 H41        43.8101    3.1500   14.4381 H           1 MOL       0.0274
     89 H42        44.0635    1.4097   14.3491 H           1 MOL       0.0274
     90 H43        43.1885    2.2424   13.0551 H           1 MOL       0.0274
     91 H44        46.7640    2.8932   10.6654 H           1 MOL       0.0557
     92 H45        46.9363    4.8168    9.2773 H           1 MOL       0.0599
     93 H46        45.7795    6.8782    9.8731 H           1 MOL       0.0559
     94 H47        44.4741    6.9777   11.9057 H           1 MOL       0.0599
     95 H48        44.2660    5.0580   13.3053 H           1 MOL       0.0557
@<TRIPOS>BOND
     1     1     2   1
     2     2     3   1
     3     2     4   1
     4     4     5   1
     5     5     6  am
     6     6     7   2
     7     6     8   1
     8     8     9   1
     9     8    12   1
    10     9    10   1
    11     9    11   1
    12    12    13   1
    13    13    14   1
    14    14    15   1
    15    14    22   1
    16    15    16   1
    17    16    17  ar
    18    16    21  ar
    19    17    18  ar
    20    18    19  ar
    21    19    20  ar
    22    20    21  ar
    23    22    23  am
    24    23    24   2
    25    23    25   1
    26    25    26  ar
    27    25    27  ar
    28    26    36  ar
    29    27    28  ar
    30    28    29   1
    31    28    35  ar
    32    29    30   1
    33    29    31  am
    34    31    32   2
    35    31    33   2
    36    31    34   1
    37    35    36  ar
    38    36    37   1
    39    37    38   2
    40    37    39  am
    41    39    40   1
    42    40    41   1
    43    40    42   1
    44    42    43  ar
    45    42    47  ar
    46    43    44  ar
    47    44    45  ar
    48    45    46  ar
    49    46    47  ar
    50     1    48   1
    51     1    49   1
    52     1    50   1
    53     2    51   1
    54     3    52   1
    55     3    53   1
    56     3    54   1
    57     4    55   1
    58     4    56   1
    59     5    57   1
    60     8    58   1
    61     9    59   1
    62    10    60   1
    63    10    61   1
    64    10    62   1
    65    11    63   1
    66    12    64   1
    67    12    65   1
    68    13    66   1
    69    13    67   1
    70    14    68   1
    71    15    69   1
    72    15    70   1
    73    17    71   1
    74    18    72   1
    75    19    73   1
    76    20    74   1
    77    21    75   1
    78    22    76   1
    79    26    77   1
    80    27    78   1
    81    30    79   1
    82    30    80   1
    83    30    81   1
    84    34    82   1
    85    34    83   1
    86    34    84   1
    87    35    85   1
    88    39    86   1
    89    40    87   1
    90    41    88   1
    91    41    89   1
    92    41    90   1
    93    43    91   1
    94    44    92   1
    95    45    93   1
    96    46    94   1
    97    47    95   1
@<TRIPOS>SUBSTRUCTURE
     1  MOL      1

