@<TRIPOS>MOLECULE
4gid_ligand_032
    95    97
SMALL
GAST_HUCK
****
This file was generated by PARSER (from files_GN.cpp)

@<TRIPOS>ATOM
      1 CBK        49.1599   -2.2321   11.4040 C.3         1 MOL      -0.0608
      2 CBL        49.1225   -2.9713   10.0384 C.3         1 MOL      -0.0265
      3 CBM        50.3133   -3.9603    9.9123 C.3         1 MOL      -0.0608
      4 CBN        47.7690   -3.7065    9.8243 C.3         1 MOL       0.0334
      5 NBO        46.6808   -2.7862    9.6585 N.am        1 MOL      -0.2820
      6 CBP        45.6640   -2.6066   10.4906 C.2         1 MOL       0.2271
      7 OBV        45.6094   -3.1885   11.5650 O.2         1 MOL      -0.3908
      8 CBG        44.5376   -1.7486   10.1184 C.3         1 MOL       0.0928
      9 CBH        44.3597   -0.5373   11.1151 C.3         1 MOL       0.1121
     10 CBJ        44.6399    0.8471   10.4734 C.3         1 MOL      -0.0314
     11 OBI        43.0571   -0.4873   11.7084 O.3         1 MOL      -0.3840
     12 NBF        43.3074   -2.5841   10.0457 N.4         1 MOL       0.2497
     13 CAX        43.2320   -3.6765    9.0329 C.3         1 MOL      -0.0062
     14 CAW        42.5173   -4.9579    9.5778 C.3         1 MOL       0.0906
     15 CAY        42.0319   -5.8751    8.4056 C.3         1 MOL       0.0089
     16 CAZ        41.0661   -6.9296    8.8169 C.ar        1 MOL      -0.0406
     17 CBA        39.6823   -6.7995    8.5194 C.ar        1 MOL      -0.0603
     18 CBB        38.7449   -7.7094    9.0317 C.ar        1 MOL      -0.0686
     19 CBC        39.1673   -8.7609    9.8663 C.ar        1 MOL      -0.0687
     20 CBD        40.5370   -8.9369   10.1248 C.ar        1 MOL      -0.0686
     21 CBE        41.4821   -8.0405    9.5839 C.ar        1 MOL      -0.0603
     22 NAV        41.4469   -4.5746   10.4620 N.am        1 MOL      -0.2761
     23 CAT        40.9767   -5.2506   11.4901 C.2         1 MOL       0.2026
     24 OAU        41.2873   -6.4360   11.7013 O.2         1 MOL      -0.3847
     25 CAP        39.9908   -4.7236   12.2765 C.ar        1 MOL       0.0397
     26 CAQ        38.6912   -5.2782   12.2804 C.ar        1 MOL      -0.0393
     27 CAO        40.2687   -3.6122   13.0995 C.ar        1 MOL      -0.0214
     28 CAN        39.2658   -3.0566   13.9189 C.ar        1 MOL       0.0754
     29 NAE        39.5439   -1.9851   14.7245 N.am        1 MOL      -0.1796
     30 CBT        40.1192   -0.7811   14.1926 C.3         1 MOL       0.0445
     31 SAB        39.4892   -2.2140   16.4020 S.o2        1 MOL       0.0593
     32 OAC        38.0867   -2.8028   16.8727 O.2         1 MOL      -0.1500
     33 OAD        40.6387   -3.2197   16.8468 O.2         1 MOL      -0.1500
     34 CAA        39.6959   -0.7026   17.3643 C.3         1 MOL       0.0790
     35 CAS        37.9674   -3.6070   13.8728 C.ar        1 MOL      -0.0214
     36 CAR        37.6399   -4.7250   13.0544 C.ar        1 MOL       0.0398
     37 CAL        36.3248   -5.2277   13.0008 C.2         1 MOL       0.2041
     38 OAM        35.4887   -4.7525   13.7586 O.2         1 MOL      -0.3845
     39 NBQ        35.9388   -6.1720   12.1375 N.am        1 MOL      -0.2723
     40 CBR        34.6392   -6.7657   11.9280 C.3         1 MOL       0.0723
     41 CBS        34.0536   -6.1735   10.6195 C.3         1 MOL      -0.0320
     42 CAI        33.7445   -6.8139   13.1381 C.ar        1 MOL      -0.0183
     43 CAH        34.0820   -7.6655   14.2118 C.ar        1 MOL      -0.0582
     44 CAG        33.3348   -7.6715   15.4089 C.ar        1 MOL      -0.0685
     45 CAF        32.2268   -6.8194   15.5485 C.ar        1 MOL      -0.0687
     46 CAK        31.8576   -5.9775   14.4853 C.ar        1 MOL      -0.0685
     47 CAJ        32.6038   -5.9744   13.2953 C.ar        1 MOL      -0.0582
     48 H1         50.1039   -1.6968   11.5195 H           1 MOL       0.0233
     49 H2         49.0549   -2.9405   12.2292 H           1 MOL       0.0233
     50 H3         48.3501   -1.5028   11.4684 H           1 MOL       0.0233
     51 H4         49.2328   -2.2223    9.2469 H           1 MOL       0.0315
     52 H5         50.3136   -4.4288    8.9259 H           1 MOL       0.0233
     53 H6         50.2464   -4.7441   10.6699 H           1 MOL       0.0233
     54 H7         51.2615   -3.4342   10.0365 H           1 MOL       0.0233
     55 H8         47.6022   -4.4047   10.6496 H           1 MOL       0.0522
     56 H9         47.8121   -4.2993    8.9058 H           1 MOL       0.0522
     57 H10        46.6829   -2.2604    8.8402 H           1 MOL       0.1853
     58 H11        44.6986   -1.3475    9.1110 H           1 MOL       0.1125
     59 H12        45.0529   -0.6303   11.9586 H           1 MOL       0.0674
     60 H13        44.5335    1.6361   11.2217 H           1 MOL       0.0258
     61 H14        43.9342    1.0399    9.6628 H           1 MOL       0.0258
     62 H15        45.6571    0.8831   10.0748 H           1 MOL       0.0258
     63 H16        42.4260   -0.3372   10.9727 H           1 MOL       0.2102
     64 H17        42.5357   -1.9443    9.8457 H           1 MOL       0.2037
     65 H18        43.1479   -2.9842   10.9730 H           1 MOL       0.2037
     66 H19        44.2287   -3.9584    8.6765 H           1 MOL       0.0839
     67 H20        42.6873   -3.2669    8.1765 H           1 MOL       0.0839
     68 H21        43.2700   -5.5082   10.1586 H           1 MOL       0.0632
     69 H22        42.8983   -6.3494    7.9432 H           1 MOL       0.0450
     70 H23        41.5738   -5.2482    7.6382 H           1 MOL       0.0450
     71 H24        39.3525   -6.0283    7.9313 H           1 MOL       0.0557
     72 H25        37.7490   -7.5894    8.8262 H           1 MOL       0.0599
     73 H26        38.4818   -9.3991   10.2736 H           1 MOL       0.0559
     74 H27        40.8412   -9.7161   10.7111 H           1 MOL       0.0599
     75 H28        42.4750   -8.1731    9.8030 H           1 MOL       0.0557
     76 H29        41.0593   -3.6948   10.3136 H           1 MOL       0.1852
     77 H30        38.5205   -6.0914   11.6850 H           1 MOL       0.0576
     78 H31        41.2157   -3.2161   13.1272 H           1 MOL       0.0566
     79 H32        40.1744   -0.7864   13.1018 H           1 MOL       0.0517
     80 H33        41.1320   -0.6477   14.5793 H           1 MOL       0.0517
     81 H34        39.5143    0.0777   14.4824 H           1 MOL       0.0517
     82 H35        39.6005   -0.9307   18.4234 H           1 MOL       0.0487
     83 H36        38.9291    0.0143   17.0795 H           1 MOL       0.0487
     84 H37        40.6793   -0.2799   17.1744 H           1 MOL       0.0487
     85 H38        37.2395   -3.1585   14.4343 H           1 MOL       0.0566
     86 H39        36.6096   -6.4593   11.5002 H           1 MOL       0.1875
     87 H40        34.8457   -7.8085   11.6802 H           1 MOL       0.0716
     88 H41        33.1033   -6.6504   10.3774 H           1 MOL       0.0274
     89 H42        34.7364   -6.3485    9.7852 H           1 MOL       0.0274
     90 H43        33.8972   -5.0977   10.7098 H           1 MOL       0.0274
     91 H44        34.8929   -8.2889   14.1427 H           1 MOL       0.0557
     92 H45        33.6053   -8.2856   16.1795 H           1 MOL       0.0599
     93 H46        31.6970   -6.8039   16.4217 H           1 MOL       0.0559
     94 H47        31.0511   -5.3544   14.5855 H           1 MOL       0.0599
     95 H48        32.3200   -5.3384   12.5522 H           1 MOL       0.0557
@<TRIPOS>BOND
     1     1     2   1
     2     2     3   1
     3     2     4   1
     4     4     5   1
     5     5     6  am
     6     6     7   2
     7     6     8   1
     8     8     9   1
     9     8    12   1
    10     9    10   1
    11     9    11   1
    12    12    13   1
    13    13    14   1
    14    14    15   1
    15    14    22   1
    16    15    16   1
    17    16    17  ar
    18    16    21  ar
    19    17    18  ar
    20    18    19  ar
    21    19    20  ar
    22    20    21  ar
    23    22    23  am
    24    23    24   2
    25    23    25   1
    26    25    26  ar
    27    25    27  ar
    28    26    36  ar
    29    27    28  ar
    30    28    29   1
    31    28    35  ar
    32    29    30   1
    33    29    31  am
    34    31    32   2
    35    31    33   2
    36    31    34   1
    37    35    36  ar
    38    36    37   1
    39    37    38   2
    40    37    39  am
    41    39    40   1
    42    40    41   1
    43    40    42   1
    44    42    43  ar
    45    42    47  ar
    46    43    44  ar
    47    44    45  ar
    48    45    46  ar
    49    46    47  ar
    50     1    48   1
    51     1    49   1
    52     1    50   1
    53     2    51   1
    54     3    52   1
    55     3    53   1
    56     3    54   1
    57     4    55   1
    58     4    56   1
    59     5    57   1
    60     8    58   1
    61     9    59   1
    62    10    60   1
    63    10    61   1
    64    10    62   1
    65    11    63   1
    66    12    64   1
    67    12    65   1
    68    13    66   1
    69    13    67   1
    70    14    68   1
    71    15    69   1
    72    15    70   1
    73    17    71   1
    74    18    72   1
    75    19    73   1
    76    20    74   1
    77    21    75   1
    78    22    76   1
    79    26    77   1
    80    27    78   1
    81    30    79   1
    82    30    80   1
    83    30    81   1
    84    34    82   1
    85    34    83   1
    86    34    84   1
    87    35    85   1
    88    39    86   1
    89    40    87   1
    90    41    88   1
    91    41    89   1
    92    41    90   1
    93    43    91   1
    94    44    92   1
    95    45    93   1
    96    46    94   1
    97    47    95   1
@<TRIPOS>SUBSTRUCTURE
     1  MOL      1

