@<TRIPOS>MOLECULE
4gid_ligand_016
    95    97
SMALL
GAST_HUCK
****
This file was generated by PARSER (from files_GN.cpp)

@<TRIPOS>ATOM
      1 CBK        35.9255   -4.6920   10.0051 C.3         1 MOL      -0.0608
      2 CBL        35.5369   -6.0563   10.6405 C.3         1 MOL      -0.0265
      3 CBM        34.3491   -6.7023    9.8717 C.3         1 MOL      -0.0608
      4 CBN        36.7287   -7.0515   10.8402 C.3         1 MOL       0.0334
      5 NBO        38.0261   -6.5707   10.4218 N.am        1 MOL      -0.2820
      6 CBP        39.1774   -7.0902   10.8182 C.2         1 MOL       0.2271
      7 OBV        39.2070   -8.2389   11.2594 O.2         1 MOL      -0.3908
      8 CBG        40.4121   -6.2991   10.7384 C.3         1 MOL       0.0928
      9 CBH        41.7718   -7.0338   11.0577 C.3         1 MOL       0.1121
     10 CBJ        41.7372   -8.4980   11.5966 C.3         1 MOL      -0.0314
     11 OBI        42.5909   -7.0381    9.8832 O.3         1 MOL      -0.3840
     12 NBF        40.2853   -4.9836   11.4464 N.4         1 MOL       0.2497
     13 CAX        39.9101   -4.9518   12.8855 C.3         1 MOL      -0.0062
     14 CAW        39.5477   -3.5340   13.4464 C.3         1 MOL       0.0906
     15 CAY        40.7417   -2.7429   14.0900 C.3         1 MOL       0.0089
     16 CAZ        41.2707   -1.6277   13.2659 C.ar        1 MOL      -0.0406
     17 CBA        42.3999   -1.8125   12.4346 C.ar        1 MOL      -0.0603
     18 CBB        42.9268   -0.7380   11.6911 C.ar        1 MOL      -0.0686
     19 CBC        42.3316    0.5310   11.7712 C.ar        1 MOL      -0.0687
     20 CBD        41.2068    0.7322   12.5887 C.ar        1 MOL      -0.0686
     21 CBE        40.6802   -0.3396   13.3325 C.ar        1 MOL      -0.0603
     22 NAV        38.5193   -3.6916   14.4419 N.am        1 MOL      -0.2761
     23 CAT        37.2072   -3.7160   14.2184 C.2         1 MOL       0.2026
     24 OAU        36.7472   -3.4588   13.1117 O.2         1 MOL      -0.3847
     25 CAP        36.3269   -4.0565   15.2342 C.ar        1 MOL       0.0397
     26 CAQ        36.3834   -3.4003   16.4799 C.ar        1 MOL      -0.0393
     27 CAO        35.3812   -5.0962   15.0520 C.ar        1 MOL      -0.0214
     28 CAN        34.4836   -5.4761   16.0797 C.ar        1 MOL       0.0754
     29 NAE        33.6637   -6.5796   15.9346 N.am        1 MOL      -0.1796
     30 CBT        33.7299   -7.6859   16.8506 C.3         1 MOL       0.0445
     31 SAB        32.6759   -6.7806   14.5740 S.o2        1 MOL       0.0593
     32 OAC        32.7405   -5.4845   13.6555 O.2         1 MOL      -0.1500
     33 OAD        33.2234   -7.9874   13.6903 O.2         1 MOL      -0.1500
     34 CAA        30.9265   -7.0491   14.9268 C.3         1 MOL       0.0790
     35 CAS        34.5052   -4.7315   17.2799 C.ar        1 MOL      -0.0214
     36 CAR        35.4604   -3.7105   17.5027 C.ar        1 MOL       0.0398
     37 CAL        35.5343   -3.0424   18.7043 C.2         1 MOL       0.2041
     38 OAM        36.1808   -3.5840   19.6076 O.2         1 MOL      -0.3845
     39 NBQ        34.8442   -1.9309   18.8909 N.am        1 MOL      -0.2723
     40 CBR        34.8235   -1.0611   20.0402 C.3         1 MOL       0.0723
     41 CBS        35.5583    0.2563   19.6673 C.3         1 MOL      -0.0320
     42 CAI        35.2100   -1.7259   21.3312 C.ar        1 MOL      -0.0183
     43 CAH        36.3905   -1.4118   22.0544 C.ar        1 MOL      -0.0582
     44 CAG        36.7138   -2.0858   23.2484 C.ar        1 MOL      -0.0685
     45 CAF        35.8662   -3.0901   23.7408 C.ar        1 MOL      -0.0687
     46 CAK        34.6965   -3.4233   23.0391 C.ar        1 MOL      -0.0685
     47 CAJ        34.3726   -2.7472   21.8471 C.ar        1 MOL      -0.0582
     48 H1         35.0939   -3.9835   10.0716 H           1 MOL       0.0233
     49 H2         36.1930   -4.8160    8.9527 H           1 MOL       0.0233
     50 H3         36.7785   -4.2616   10.5299 H           1 MOL       0.0233
     51 H4         35.1484   -5.8285   11.6385 H           1 MOL       0.0315
     52 H5         33.9657   -7.5521   10.4411 H           1 MOL       0.0233
     53 H6         34.6655   -7.0514    8.8852 H           1 MOL       0.0233
     54 H7         33.5314   -5.9861    9.7483 H           1 MOL       0.0233
     55 H8         36.4980   -8.0021   10.3480 H           1 MOL       0.0522
     56 H9         36.8160   -7.2663   11.9075 H           1 MOL       0.0522
     57 H10        38.0606   -5.6656   10.0449 H           1 MOL       0.1853
     58 H11        40.4968   -6.0030    9.6867 H           1 MOL       0.1125
     59 H12        42.3120   -6.4358   11.8094 H           1 MOL       0.0674
     60 H13        42.7677   -8.8535   11.7719 H           1 MOL       0.0258
     61 H14        41.2669   -9.1592   10.8648 H           1 MOL       0.0258
     62 H15        41.1771   -8.5654   12.5377 H           1 MOL       0.0258
     63 H16        42.1293   -7.6419    9.2573 H           1 MOL       0.2102
     64 H17        39.5734   -4.4591   10.9361 H           1 MOL       0.2037
     65 H18        41.1630   -4.4684   11.3421 H           1 MOL       0.2037
     66 H19        40.7151   -5.3822   13.4779 H           1 MOL       0.0839
     67 H20        39.0464   -5.6067   13.0216 H           1 MOL       0.0839
     68 H21        39.1416   -2.9315   12.6279 H           1 MOL       0.0632
     69 H22        41.5606   -3.4197   14.3323 H           1 MOL       0.0450
     70 H23        40.4309   -2.3304   15.0567 H           1 MOL       0.0450
     71 H24        42.8527   -2.7254   12.3745 H           1 MOL       0.0557
     72 H25        43.7426   -0.8853   11.0899 H           1 MOL       0.0599
     73 H26        42.7139    1.3123   11.2267 H           1 MOL       0.0559
     74 H27        40.7606    1.6537   12.6306 H           1 MOL       0.0599
     75 H28        39.8591   -0.1761   13.9174 H           1 MOL       0.0557
     76 H29        38.8141   -3.9350   15.3360 H           1 MOL       0.1852
     77 H30        37.0787   -2.6638   16.6359 H           1 MOL       0.0576
     78 H31        35.3854   -5.6202   14.1747 H           1 MOL       0.0566
     79 H32        34.4957   -7.5621   17.6201 H           1 MOL       0.0517
     80 H33        33.9581   -8.6121   16.3162 H           1 MOL       0.0517
     81 H34        32.7695   -7.8109   17.3532 H           1 MOL       0.0517
     82 H35        30.3654   -7.1148   13.9914 H           1 MOL       0.0487
     83 H36        30.5413   -6.2182   15.5190 H           1 MOL       0.0487
     84 H37        30.7990   -7.9794   15.4843 H           1 MOL       0.0487
     85 H38        33.8419   -4.9693   18.0273 H           1 MOL       0.0566
     86 H39        34.4120   -1.5769   18.0912 H           1 MOL       0.1875
     87 H40        33.7789   -0.7640   20.1673 H           1 MOL       0.0716
     88 H41        35.5010    0.9693   20.4922 H           1 MOL       0.0274
     89 H42        35.0902    0.7123   18.7922 H           1 MOL       0.0274
     90 H43        36.6067    0.0627   19.4318 H           1 MOL       0.0274
     91 H44        37.0411   -0.7020   21.7184 H           1 MOL       0.0557
     92 H45        37.5719   -1.8492   23.7531 H           1 MOL       0.0599
     93 H46        36.0998   -3.5791   24.6099 H           1 MOL       0.0559
     94 H47        34.0804   -4.1586   23.3944 H           1 MOL       0.0599
     95 H48        33.5197   -3.0133   21.3494 H           1 MOL       0.0557
@<TRIPOS>BOND
     1     1     2   1
     2     2     3   1
     3     2     4   1
     4     4     5   1
     5     5     6  am
     6     6     7   2
     7     6     8   1
     8     8     9   1
     9     8    12   1
    10     9    10   1
    11     9    11   1
    12    12    13   1
    13    13    14   1
    14    14    15   1
    15    14    22   1
    16    15    16   1
    17    16    17  ar
    18    16    21  ar
    19    17    18  ar
    20    18    19  ar
    21    19    20  ar
    22    20    21  ar
    23    22    23  am
    24    23    24   2
    25    23    25   1
    26    25    26  ar
    27    25    27  ar
    28    26    36  ar
    29    27    28  ar
    30    28    29   1
    31    28    35  ar
    32    29    30   1
    33    29    31  am
    34    31    32   2
    35    31    33   2
    36    31    34   1
    37    35    36  ar
    38    36    37   1
    39    37    38   2
    40    37    39  am
    41    39    40   1
    42    40    41   1
    43    40    42   1
    44    42    43  ar
    45    42    47  ar
    46    43    44  ar
    47    44    45  ar
    48    45    46  ar
    49    46    47  ar
    50     1    48   1
    51     1    49   1
    52     1    50   1
    53     2    51   1
    54     3    52   1
    55     3    53   1
    56     3    54   1
    57     4    55   1
    58     4    56   1
    59     5    57   1
    60     8    58   1
    61     9    59   1
    62    10    60   1
    63    10    61   1
    64    10    62   1
    65    11    63   1
    66    12    64   1
    67    12    65   1
    68    13    66   1
    69    13    67   1
    70    14    68   1
    71    15    69   1
    72    15    70   1
    73    17    71   1
    74    18    72   1
    75    19    73   1
    76    20    74   1
    77    21    75   1
    78    22    76   1
    79    26    77   1
    80    27    78   1
    81    30    79   1
    82    30    80   1
    83    30    81   1
    84    34    82   1
    85    34    83   1
    86    34    84   1
    87    35    85   1
    88    39    86   1
    89    40    87   1
    90    41    88   1
    91    41    89   1
    92    41    90   1
    93    43    91   1
    94    44    92   1
    95    45    93   1
    96    46    94   1
    97    47    95   1
@<TRIPOS>SUBSTRUCTURE
     1  MOL      1

