@<TRIPOS>MOLECULE
4gid_ligand_086
    95    97
SMALL
GAST_HUCK
****
This file was generated by PARSER (from files_GN.cpp)

@<TRIPOS>ATOM
      1 CBK        54.7255   -1.2652   10.5090 C.3         1 MOL      -0.0608
      2 CBL        53.2834   -0.7934   10.1696 C.3         1 MOL      -0.0265
      3 CBM        53.1309    0.7314   10.4325 C.3         1 MOL      -0.0608
      4 CBN        52.8638   -1.1714    8.7150 C.3         1 MOL       0.0334
      5 NBO        52.6006   -2.5786    8.5864 N.am        1 MOL      -0.2820
      6 CBP        51.4487   -3.1672    8.2727 C.2         1 MOL       0.2271
      7 OBV        50.4493   -2.5004    8.0399 O.2         1 MOL      -0.3908
      8 CBG        51.3369   -4.6289    8.2152 C.3         1 MOL       0.0928
      9 CBH        50.9890   -5.1500    6.7686 C.3         1 MOL       0.1121
     10 CBJ        50.1556   -6.4547    6.7218 C.3         1 MOL      -0.0314
     11 OBI        50.2679   -4.2096    5.9709 O.3         1 MOL      -0.3840
     12 NBF        50.3656   -5.1671    9.2157 N.4         1 MOL       0.2497
     13 CAX        50.5180   -4.9134   10.6709 C.3         1 MOL      -0.0062
     14 CAW        49.9460   -3.5623   11.2253 C.3         1 MOL       0.0906
     15 CAY        50.5865   -3.1681   12.6220 C.3         1 MOL       0.0089
     16 CAZ        49.6862   -3.0506   13.8168 C.ar        1 MOL      -0.0406
     17 CBA        49.6754   -4.0268   14.8422 C.ar        1 MOL      -0.0603
     18 CBB        48.7640   -3.9462   15.9134 C.ar        1 MOL      -0.0686
     19 CBC        47.8559   -2.8751   15.9847 C.ar        1 MOL      -0.0687
     20 CBD        47.8833   -1.8768   14.9973 C.ar        1 MOL      -0.0686
     21 CBE        48.8131   -1.9458   13.9439 C.ar        1 MOL      -0.0603
     22 NAV        48.5017   -3.5122   11.2628 N.am        1 MOL      -0.2761
     23 CAT        47.6074   -3.4711   10.2860 C.2         1 MOL       0.2026
     24 OAU        47.8729   -3.7410    9.1165 O.2         1 MOL      -0.3847
     25 CAP        46.3584   -2.9214   10.5457 C.ar        1 MOL       0.0397
     26 CAQ        46.2810   -1.7286   11.3065 C.ar        1 MOL      -0.0393
     27 CAO        45.1676   -3.4390    9.9992 C.ar        1 MOL      -0.0214
     28 CAN        43.9293   -2.8064   10.2346 C.ar        1 MOL       0.0754
     29 NAE        42.7832   -3.3528    9.7501 N.am        1 MOL      -0.1796
     30 CBT        42.2612   -2.9796    8.4693 C.3         1 MOL       0.0445
     31 SAB        41.9880   -4.4789   10.7298 S.o2        1 MOL       0.0593
     32 OAC        40.8365   -5.2232    9.9248 O.2         1 MOL      -0.1500
     33 OAD        43.0127   -5.6438   11.0780 O.2         1 MOL      -0.1500
     34 CAA        41.2925   -3.7962   12.2465 C.3         1 MOL       0.0790
     35 CAS        43.8902   -1.6145   10.9911 C.ar        1 MOL      -0.0214
     36 CAR        45.0655   -1.0387   11.5397 C.ar        1 MOL       0.0398
     37 CAL        45.0332    0.1631   12.2789 C.2         1 MOL       0.2041
     38 OAM        43.9557    0.7135   12.4791 O.2         1 MOL      -0.3845
     39 NBQ        46.1397    0.7138   12.7821 N.am        1 MOL      -0.2723
     40 CBR        46.2661    1.8692   13.6205 C.3         1 MOL       0.0723
     41 CBS        46.9739    2.9960   12.8203 C.3         1 MOL      -0.0320
     42 CAI        46.9566    1.4456   14.8801 C.ar        1 MOL      -0.0183
     43 CAH        46.1839    1.1268   16.0276 C.ar        1 MOL      -0.0582
     44 CAG        46.7884    0.6727   17.2148 C.ar        1 MOL      -0.0685
     45 CAF        48.1839    0.5369   17.2850 C.ar        1 MOL      -0.0687
     46 CAK        48.9723    0.8436   16.1642 C.ar        1 MOL      -0.0685
     47 CAJ        48.3646    1.2778   14.9693 C.ar        1 MOL      -0.0582
     48 H1         54.9622   -1.0429   11.5518 H           1 MOL       0.0233
     49 H2         55.4579   -0.7642    9.8724 H           1 MOL       0.0233
     50 H3         54.8216   -2.3415   10.3663 H           1 MOL       0.0233
     51 H4         52.5994   -1.3003   10.8566 H           1 MOL       0.0315
     52 H5         52.0930    1.0367   10.2818 H           1 MOL       0.0233
     53 H6         53.7676    1.3069    9.7564 H           1 MOL       0.0233
     54 H7         53.4063    0.9693   11.4620 H           1 MOL       0.0233
     55 H8         53.6712   -0.9140    8.0238 H           1 MOL       0.0522
     56 H9         51.9899   -0.5826    8.4228 H           1 MOL       0.0522
     57 H10        53.3590   -3.1581    8.7336 H           1 MOL       0.1853
     58 H11        52.3061   -5.0697    8.4653 H           1 MOL       0.1125
     59 H12        51.9271   -5.3538    6.2434 H           1 MOL       0.0674
     60 H13        50.0168   -6.7650    5.6844 H           1 MOL       0.0258
     61 H14        49.1647   -6.2967    7.1528 H           1 MOL       0.0258
     62 H15        50.6613   -7.2544    7.2698 H           1 MOL       0.0258
     63 H16        50.8561   -3.4322    5.8649 H           1 MOL       0.2102
     64 H17        50.4336   -6.1864    9.1296 H           1 MOL       0.2037
     65 H18        49.4313   -4.9097    8.9125 H           1 MOL       0.2037
     66 H19        51.5822   -5.0098   10.9028 H           1 MOL       0.0839
     67 H20        49.9988   -5.7192   11.1823 H           1 MOL       0.0839
     68 H21        50.2536   -2.7714   10.5372 H           1 MOL       0.0632
     69 H22        51.0864   -2.1987   12.5185 H           1 MOL       0.0450
     70 H23        51.3931   -3.8608   12.8754 H           1 MOL       0.0450
     71 H24        50.3141   -4.8228   14.8033 H           1 MOL       0.0557
     72 H25        48.7516   -4.6718   16.6326 H           1 MOL       0.0599
     73 H26        47.1847   -2.8178   16.7529 H           1 MOL       0.0559
     74 H27        47.2116   -1.1112   15.0348 H           1 MOL       0.0599
     75 H28        48.8368   -1.1906   13.2558 H           1 MOL       0.0557
     76 H29        48.1228   -3.3507   12.1410 H           1 MOL       0.1852
     77 H30        47.1562   -1.3341   11.6484 H           1 MOL       0.0576
     78 H31        45.1932   -4.2910    9.4278 H           1 MOL       0.0566
     79 H32        42.9164   -2.2787    7.9412 H           1 MOL       0.0517
     80 H33        41.2865   -2.5077    8.5960 H           1 MOL       0.0517
     81 H34        42.1457   -3.8666    7.8416 H           1 MOL       0.0517
     82 H35        40.7918   -4.5857   12.8082 H           1 MOL       0.0487
     83 H36        40.5736   -3.0136   11.9978 H           1 MOL       0.0487
     84 H37        42.0916   -3.3728   12.8577 H           1 MOL       0.0487
     85 H38        42.9831   -1.1654   11.1310 H           1 MOL       0.0566
     86 H39        46.9793    0.2825   12.5738 H           1 MOL       0.1875
     87 H40        45.2790    2.2689   13.8760 H           1 MOL       0.0716
     88 H41        47.1821    3.8497   13.4688 H           1 MOL       0.0274
     89 H42        46.3290    3.3323   12.0044 H           1 MOL       0.0274
     90 H43        47.9141    2.6489   12.3830 H           1 MOL       0.0274
     91 H44        45.1644    1.2030   15.9990 H           1 MOL       0.0557
     92 H45        46.2087    0.4381   18.0255 H           1 MOL       0.0599
     93 H46        48.6235    0.2122   18.1495 H           1 MOL       0.0559
     94 H47        49.9891    0.7341   16.2105 H           1 MOL       0.0599
     95 H48        48.9637    1.4695   14.1652 H           1 MOL       0.0557
@<TRIPOS>BOND
     1     1     2   1
     2     2     3   1
     3     2     4   1
     4     4     5   1
     5     5     6  am
     6     6     7   2
     7     6     8   1
     8     8     9   1
     9     8    12   1
    10     9    10   1
    11     9    11   1
    12    12    13   1
    13    13    14   1
    14    14    15   1
    15    14    22   1
    16    15    16   1
    17    16    17  ar
    18    16    21  ar
    19    17    18  ar
    20    18    19  ar
    21    19    20  ar
    22    20    21  ar
    23    22    23  am
    24    23    24   2
    25    23    25   1
    26    25    26  ar
    27    25    27  ar
    28    26    36  ar
    29    27    28  ar
    30    28    29   1
    31    28    35  ar
    32    29    30   1
    33    29    31  am
    34    31    32   2
    35    31    33   2
    36    31    34   1
    37    35    36  ar
    38    36    37   1
    39    37    38   2
    40    37    39  am
    41    39    40   1
    42    40    41   1
    43    40    42   1
    44    42    43  ar
    45    42    47  ar
    46    43    44  ar
    47    44    45  ar
    48    45    46  ar
    49    46    47  ar
    50     1    48   1
    51     1    49   1
    52     1    50   1
    53     2    51   1
    54     3    52   1
    55     3    53   1
    56     3    54   1
    57     4    55   1
    58     4    56   1
    59     5    57   1
    60     8    58   1
    61     9    59   1
    62    10    60   1
    63    10    61   1
    64    10    62   1
    65    11    63   1
    66    12    64   1
    67    12    65   1
    68    13    66   1
    69    13    67   1
    70    14    68   1
    71    15    69   1
    72    15    70   1
    73    17    71   1
    74    18    72   1
    75    19    73   1
    76    20    74   1
    77    21    75   1
    78    22    76   1
    79    26    77   1
    80    27    78   1
    81    30    79   1
    82    30    80   1
    83    30    81   1
    84    34    82   1
    85    34    83   1
    86    34    84   1
    87    35    85   1
    88    39    86   1
    89    40    87   1
    90    41    88   1
    91    41    89   1
    92    41    90   1
    93    43    91   1
    94    44    92   1
    95    45    93   1
    96    46    94   1
    97    47    95   1
@<TRIPOS>SUBSTRUCTURE
     1  MOL      1

