@<TRIPOS>MOLECULE
4gid_ligand_008
    95    97
SMALL
GAST_HUCK
****
This file was generated by PARSER (from files_GN.cpp)

@<TRIPOS>ATOM
      1 CBK        42.0697   -5.8151    9.9849 C.3         1 MOL      -0.0608
      2 CBL        42.8314   -4.7222    9.1877 C.3         1 MOL      -0.0265
      3 CBM        41.8619   -3.8335    8.3631 C.3         1 MOL      -0.0608
      4 CBN        43.7541   -3.8722   10.1051 C.3         1 MOL       0.0334
      5 NBO        43.0667   -2.7880   10.7473 N.am        1 MOL      -0.2820
      6 CBP        42.9052   -2.6074   12.0497 C.2         1 MOL       0.2271
      7 OBV        43.0959   -3.5321   12.8393 O.2         1 MOL      -0.3908
      8 CBG        42.4957   -1.3002   12.5672 C.3         1 MOL       0.0928
      9 CBH        40.9833   -1.1943   12.9949 C.3         1 MOL       0.1121
     10 CBJ        40.0319   -2.3546   12.5980 C.3         1 MOL      -0.0314
     11 OBI        40.8788   -1.0348   14.4109 O.3         1 MOL      -0.3840
     12 NBF        42.8769   -0.1483   11.6906 N.4         1 MOL       0.2497
     13 CAX        44.2516   -0.0266   11.1261 C.3         1 MOL      -0.0062
     14 CAW        45.4342   -0.0603   12.1530 C.3         1 MOL       0.0906
     15 CAY        45.6314    1.3137   12.8850 C.3         1 MOL       0.0089
     16 CAZ        47.0426    1.6274   13.2494 C.ar        1 MOL      -0.0406
     17 CBA        47.9524    2.0089   12.2345 C.ar        1 MOL      -0.0603
     18 CBB        49.2986    2.2680   12.5377 C.ar        1 MOL      -0.0686
     19 CBC        49.7583    2.1491   13.8602 C.ar        1 MOL      -0.0687
     20 CBD        48.8651    1.7829   14.8820 C.ar        1 MOL      -0.0686
     21 CBE        47.5150    1.5231   14.5803 C.ar        1 MOL      -0.0603
     22 NAV        46.6243   -0.5249   11.4767 N.am        1 MOL      -0.2761
     23 CAT        47.4265   -1.5047   11.8759 C.2         1 MOL       0.2026
     24 OAU        47.2066   -2.1655   12.8933 O.2         1 MOL      -0.3847
     25 CAP        48.5984   -1.7566   11.2008 C.ar        1 MOL       0.0397
     26 CAQ        49.8268   -1.2480   11.6874 C.ar        1 MOL      -0.0393
     27 CAO        48.5799   -2.4538    9.9695 C.ar        1 MOL      -0.0214
     28 CAN        49.7722   -2.6455    9.2417 C.ar        1 MOL       0.0754
     29 NAE        49.7474   -3.2187    8.0072 N.am        1 MOL      -0.1796
     30 CBT        49.8639   -2.4114    6.8297 C.3         1 MOL       0.0445
     31 SAB        49.8058   -4.9024    7.8914 S.o2        1 MOL       0.0593
     32 OAC        48.6621   -5.5424    8.7906 O.2         1 MOL      -0.1500
     33 OAD        49.4572   -5.3124    6.3910 O.2         1 MOL      -0.1500
     34 CAA        51.4156   -5.6030    8.3024 C.3         1 MOL       0.0790
     35 CAS        50.9840   -2.1305    9.7352 C.ar        1 MOL      -0.0214
     36 CAR        51.0256   -1.4020   10.9428 C.ar        1 MOL       0.0398
     37 CAL        52.1915   -0.7537   11.2926 C.2         1 MOL       0.2041
     38 OAM        53.1856   -1.4214   11.5813 O.2         1 MOL      -0.3845
     39 NBQ        52.2690    0.5611   11.1432 N.am        1 MOL      -0.2723
     40 CBR        53.4526    1.3676   11.2953 C.3         1 MOL       0.0723
     41 CBS        53.0186    2.8456   11.4932 C.3         1 MOL      -0.0320
     42 CAI        54.4642    1.2775   10.1852 C.ar        1 MOL      -0.0183
     43 CAH        55.7636    1.8013   10.4037 C.ar        1 MOL      -0.0582
     44 CAG        56.7249    1.8254    9.3775 C.ar        1 MOL      -0.0685
     45 CAF        56.4090    1.3189    8.1061 C.ar        1 MOL      -0.0687
     46 CAK        55.1362    0.7681    7.8733 C.ar        1 MOL      -0.0685
     47 CAJ        54.1716    0.7534    8.9002 C.ar        1 MOL      -0.0582
     48 H1         41.4237   -6.3891    9.3168 H           1 MOL       0.0233
     49 H2         41.4573   -5.3686   10.7720 H           1 MOL       0.0233
     50 H3         42.7816   -6.5075   10.4415 H           1 MOL       0.0233
     51 H4         43.4781   -5.2436    8.4721 H           1 MOL       0.0315
     52 H5         42.4242   -3.0674    7.8247 H           1 MOL       0.0233
     53 H6         41.1364   -3.3344    9.0088 H           1 MOL       0.0233
     54 H7         41.3200   -4.4438    7.6381 H           1 MOL       0.0233
     55 H8         44.5401   -3.4275    9.4873 H           1 MOL       0.0522
     56 H9         44.2554   -4.5320   10.8161 H           1 MOL       0.0522
     57 H10        42.8258   -2.0423   10.1649 H           1 MOL       0.1853
     58 H11        43.0725   -1.1310   13.4741 H           1 MOL       0.1125
     59 H12        40.5656   -0.2767   12.5717 H           1 MOL       0.0674
     60 H13        39.0064   -2.1094   12.8883 H           1 MOL       0.0258
     61 H14        40.3183   -3.2807   13.0990 H           1 MOL       0.0258
     62 H15        40.0524   -2.5150   11.5187 H           1 MOL       0.0258
     63 H16        41.3118   -0.1741   14.6057 H           1 MOL       0.2102
     64 H17        42.7020    0.7116   12.2194 H           1 MOL       0.2037
     65 H18        42.2252   -0.1612   10.9064 H           1 MOL       0.2037
     66 H19        44.2846    0.9131   10.5664 H           1 MOL       0.0839
     67 H20        44.3874   -0.8073   10.3778 H           1 MOL       0.0839
     68 H21        45.1807   -0.7965   12.9159 H           1 MOL       0.0632
     69 H22        45.0118    1.3174   13.7863 H           1 MOL       0.0450
     70 H23        45.2557    2.1338   12.2653 H           1 MOL       0.0450
     71 H24        47.6405    2.0918   11.2631 H           1 MOL       0.0557
     72 H25        49.9353    2.5451   11.7915 H           1 MOL       0.0599
     73 H26        50.7376    2.3396   14.0812 H           1 MOL       0.0559
     74 H27        49.1967    1.7038   15.8468 H           1 MOL       0.0599
     75 H28        46.8787    1.2468   15.3325 H           1 MOL       0.0557
     76 H29        46.9030   -0.0217   10.6920 H           1 MOL       0.1852
     77 H30        49.8477   -0.7165   12.5635 H           1 MOL       0.0576
     78 H31        47.6936   -2.8019    9.5911 H           1 MOL       0.0566
     79 H32        49.8920   -1.3424    7.0578 H           1 MOL       0.0517
     80 H33        49.0088   -2.5907    6.1784 H           1 MOL       0.0517
     81 H34        50.7779   -2.6684    6.2919 H           1 MOL       0.0517
     82 H35        51.3818   -6.6870    8.1866 H           1 MOL       0.0487
     83 H36        51.6675   -5.3602    9.3355 H           1 MOL       0.0487
     84 H37        52.1758   -5.1875    7.6404 H           1 MOL       0.0487
     85 H38        51.8346   -2.2307    9.1692 H           1 MOL       0.0566
     86 H39        51.4488    1.0117   10.8681 H           1 MOL       0.1875
     87 H40        53.9327    1.0428   12.2266 H           1 MOL       0.0716
     88 H41        53.8817    3.4908   11.6654 H           1 MOL       0.0274
     89 H42        52.3719    2.9272   12.3676 H           1 MOL       0.0274
     90 H43        52.4761    3.2105   10.6165 H           1 MOL       0.0274
     91 H44        56.0175    2.1827   11.3178 H           1 MOL       0.0557
     92 H45        57.6500    2.2243    9.5518 H           1 MOL       0.0599
     93 H46        57.0996    1.3516    7.3537 H           1 MOL       0.0559
     94 H47        54.9127    0.3939    6.9482 H           1 MOL       0.0599
     95 H48        53.2483    0.3646    8.6920 H           1 MOL       0.0557
@<TRIPOS>BOND
     1     1     2   1
     2     2     3   1
     3     2     4   1
     4     4     5   1
     5     5     6  am
     6     6     7   2
     7     6     8   1
     8     8     9   1
     9     8    12   1
    10     9    10   1
    11     9    11   1
    12    12    13   1
    13    13    14   1
    14    14    15   1
    15    14    22   1
    16    15    16   1
    17    16    17  ar
    18    16    21  ar
    19    17    18  ar
    20    18    19  ar
    21    19    20  ar
    22    20    21  ar
    23    22    23  am
    24    23    24   2
    25    23    25   1
    26    25    26  ar
    27    25    27  ar
    28    26    36  ar
    29    27    28  ar
    30    28    29   1
    31    28    35  ar
    32    29    30   1
    33    29    31  am
    34    31    32   2
    35    31    33   2
    36    31    34   1
    37    35    36  ar
    38    36    37   1
    39    37    38   2
    40    37    39  am
    41    39    40   1
    42    40    41   1
    43    40    42   1
    44    42    43  ar
    45    42    47  ar
    46    43    44  ar
    47    44    45  ar
    48    45    46  ar
    49    46    47  ar
    50     1    48   1
    51     1    49   1
    52     1    50   1
    53     2    51   1
    54     3    52   1
    55     3    53   1
    56     3    54   1
    57     4    55   1
    58     4    56   1
    59     5    57   1
    60     8    58   1
    61     9    59   1
    62    10    60   1
    63    10    61   1
    64    10    62   1
    65    11    63   1
    66    12    64   1
    67    12    65   1
    68    13    66   1
    69    13    67   1
    70    14    68   1
    71    15    69   1
    72    15    70   1
    73    17    71   1
    74    18    72   1
    75    19    73   1
    76    20    74   1
    77    21    75   1
    78    22    76   1
    79    26    77   1
    80    27    78   1
    81    30    79   1
    82    30    80   1
    83    30    81   1
    84    34    82   1
    85    34    83   1
    86    34    84   1
    87    35    85   1
    88    39    86   1
    89    40    87   1
    90    41    88   1
    91    41    89   1
    92    41    90   1
    93    43    91   1
    94    44    92   1
    95    45    93   1
    96    46    94   1
    97    47    95   1
@<TRIPOS>SUBSTRUCTURE
     1  MOL      1

