@<TRIPOS>MOLECULE
4gid_ligand_047
    95    97
SMALL
GAST_HUCK
****
This file was generated by PARSER (from files_GN.cpp)

@<TRIPOS>ATOM
      1 CBK        40.3007   -4.6132   12.3749 C.3         1 MOL      -0.0608
      2 CBL        39.9146   -3.1033   12.3541 C.3         1 MOL      -0.0265
      3 CBM        38.6865   -2.8674   13.2790 C.3         1 MOL      -0.0608
      4 CBN        41.1073   -2.1661   12.7298 C.3         1 MOL       0.0334
      5 NBO        42.1003   -2.0908   11.6969 N.am        1 MOL      -0.2820
      6 CBP        43.1569   -2.8773   11.5389 C.2         1 MOL       0.2271
      7 OBV        43.3820   -3.7533   12.3736 O.2         1 MOL      -0.3908
      8 CBG        44.0208   -2.7266   10.3552 C.3         1 MOL       0.0928
      9 CBH        43.4371   -3.3707    9.0485 C.3         1 MOL       0.1121
     10 CBJ        41.8892   -3.5217    8.9378 C.3         1 MOL      -0.0314
     11 OBI        43.8969   -2.5926    7.9408 O.3         1 MOL      -0.3840
     12 NBF        45.3816   -3.2249   10.7236 N.4         1 MOL       0.2497
     13 CAX        46.4530   -3.5663    9.7465 C.3         1 MOL      -0.0062
     14 CAW        47.6781   -2.6079    9.7330 C.3         1 MOL       0.0906
     15 CAY        48.8383   -3.2042    8.8709 C.3         1 MOL       0.0089
     16 CAZ        50.0438   -2.3325    8.7907 C.ar        1 MOL      -0.0406
     17 CBA        51.2376   -2.6619    9.4784 C.ar        1 MOL      -0.0603
     18 CBB        52.3532   -1.8045    9.4347 C.ar        1 MOL      -0.0686
     19 CBC        52.2928   -0.6040    8.7066 C.ar        1 MOL      -0.0687
     20 CBD        51.1190   -0.2707    8.0115 C.ar        1 MOL      -0.0686
     21 CBE        50.0092   -1.1350    8.0390 C.ar        1 MOL      -0.0603
     22 NAV        48.1199   -2.4330   11.0888 N.am        1 MOL      -0.2761
     23 CAT        48.0510   -1.3282   11.8212 C.2         1 MOL       0.2026
     24 OAU        47.6054   -0.2935   11.3294 O.2         1 MOL      -0.3847
     25 CAP        48.5333   -1.3089   13.1315 C.ar        1 MOL       0.0397
     26 CAQ        48.3860   -2.4181   14.0040 C.ar        1 MOL      -0.0393
     27 CAO        49.2054   -0.1642   13.6201 C.ar        1 MOL      -0.0214
     28 CAN        49.7442   -0.1182   14.9210 C.ar        1 MOL       0.0754
     29 NAE        50.5018    0.9499   15.3205 N.am        1 MOL      -0.1796
     30 CBT        50.2241    1.6731   16.5280 C.3         1 MOL       0.0445
     31 SAB        51.8155    1.4502   14.3716 S.o2        1 MOL       0.0593
     32 OAC        53.0919    1.6863   15.2892 O.2         1 MOL      -0.1500
     33 OAD        52.2657    0.2705   13.4003 O.2         1 MOL      -0.1500
     34 CAA        51.4997    2.9048   13.3542 C.3         1 MOL       0.0790
     35 CAS        49.5375   -1.2189   15.7789 C.ar        1 MOL      -0.0214
     36 CAR        48.8608   -2.3817   15.3369 C.ar        1 MOL       0.0398
     37 CAL        48.7172   -3.4803   16.1827 C.2         1 MOL       0.2041
     38 OAM        48.9660   -4.5970   15.7431 O.2         1 MOL      -0.3845
     39 NBQ        48.3312   -3.3169   17.4454 N.am        1 MOL      -0.2723
     40 CBR        48.2617   -4.2897   18.5021 C.3         1 MOL       0.0723
     41 CBS        49.6633   -4.5219   19.1301 C.3         1 MOL      -0.0320
     42 CAI        47.4832   -5.5243   18.1455 C.ar        1 MOL      -0.0183
     43 CAH        48.0650   -6.6310   17.4730 C.ar        1 MOL      -0.0582
     44 CAG        47.2971   -7.7639   17.1299 C.ar        1 MOL      -0.0685
     45 CAF        45.9335   -7.8166   17.4639 C.ar        1 MOL      -0.0687
     46 CAK        45.3339   -6.7320   18.1225 C.ar        1 MOL      -0.0685
     47 CAJ        46.1017   -5.5991   18.4548 C.ar        1 MOL      -0.0582
     48 H1         39.4492   -5.2357   12.0840 H           1 MOL       0.0233
     49 H2         40.6220   -4.9105   13.3752 H           1 MOL       0.0233
     50 H3         41.1132   -4.8221   11.6785 H           1 MOL       0.0233
     51 H4         39.5916   -2.8546   11.3385 H           1 MOL       0.0315
     52 H5         38.3556   -1.8281   13.2140 H           1 MOL       0.0233
     53 H6         38.9346   -3.0926   14.3200 H           1 MOL       0.0233
     54 H7         37.8485   -3.5037   12.9762 H           1 MOL       0.0233
     55 H8         41.5417   -2.4785   13.6837 H           1 MOL       0.0522
     56 H9         40.7438   -1.1498   12.8685 H           1 MOL       0.0522
     57 H10        41.9659   -1.4074   11.0187 H           1 MOL       0.1853
     58 H11        44.1388   -1.6500   10.1838 H           1 MOL       0.1125
     59 H12        43.8410   -4.3715    8.9286 H           1 MOL       0.0674
     60 H13        41.6110   -3.9252    7.9574 H           1 MOL       0.0258
     61 H14        41.3801   -2.5643    9.0746 H           1 MOL       0.0258
     62 H15        41.5240   -4.2285    9.6916 H           1 MOL       0.0258
     63 H16        43.5759   -3.0531    7.1113 H           1 MOL       0.2102
     64 H17        45.2241   -4.0772   11.2598 H           1 MOL       0.2037
     65 H18        45.7688   -2.5322   11.3649 H           1 MOL       0.2037
     66 H19        46.0689   -3.6692    8.7254 H           1 MOL       0.0839
     67 H20        46.8178   -4.5512   10.0491 H           1 MOL       0.0839
     68 H21        47.3496   -1.6665    9.2805 H           1 MOL       0.0632
     69 H22        48.4770   -3.3955    7.8566 H           1 MOL       0.0450
     70 H23        49.1234   -4.1772    9.2813 H           1 MOL       0.0450
     71 H24        51.2986   -3.5220   10.0267 H           1 MOL       0.0557
     72 H25        53.2088   -2.0466    9.9380 H           1 MOL       0.0599
     73 H26        53.1001    0.0232    8.6831 H           1 MOL       0.0559
     74 H27        51.0679    0.6051    7.4906 H           1 MOL       0.0599
     75 H28        49.1646   -0.8759    7.5224 H           1 MOL       0.0557
     76 H29        48.5163   -3.2157   11.5112 H           1 MOL       0.1852
     77 H30        47.8864   -3.2497   13.6754 H           1 MOL       0.0576
     78 H31        49.3378    0.6477   13.0079 H           1 MOL       0.0566
     79 H32        49.3463    1.2875   17.0528 H           1 MOL       0.0517
     80 H33        50.0358    2.7224   16.2903 H           1 MOL       0.0517
     81 H34        51.0758    1.6153   17.2087 H           1 MOL       0.0517
     82 H35        52.3801    3.1247   12.7506 H           1 MOL       0.0487
     83 H36        51.2814    3.7569   13.9966 H           1 MOL       0.0487
     84 H37        50.6498    2.7189   12.6982 H           1 MOL       0.0487
     85 H38        49.9379   -1.1889   16.7202 H           1 MOL       0.0566
     86 H39        48.0985   -2.4093   17.7053 H           1 MOL       0.1875
     87 H40        47.7070   -3.7886   19.2970 H           1 MOL       0.0716
     88 H41        49.5971   -5.2600   19.9376 H           1 MOL       0.0274
     89 H42        50.0397   -3.5818   19.5545 H           1 MOL       0.0274
     90 H43        50.3812   -4.8714   18.3805 H           1 MOL       0.0274
     91 H44        49.0592   -6.6124   17.2251 H           1 MOL       0.0557
     92 H45        47.7324   -8.5466   16.6364 H           1 MOL       0.0599
     93 H46        45.3845   -8.6423   17.2263 H           1 MOL       0.0559
     94 H47        44.3389   -6.7666   18.3541 H           1 MOL       0.0599
     95 H48        45.6377   -4.8209   18.9270 H           1 MOL       0.0557
@<TRIPOS>BOND
     1     1     2   1
     2     2     3   1
     3     2     4   1
     4     4     5   1
     5     5     6  am
     6     6     7   2
     7     6     8   1
     8     8     9   1
     9     8    12   1
    10     9    10   1
    11     9    11   1
    12    12    13   1
    13    13    14   1
    14    14    15   1
    15    14    22   1
    16    15    16   1
    17    16    17  ar
    18    16    21  ar
    19    17    18  ar
    20    18    19  ar
    21    19    20  ar
    22    20    21  ar
    23    22    23  am
    24    23    24   2
    25    23    25   1
    26    25    26  ar
    27    25    27  ar
    28    26    36  ar
    29    27    28  ar
    30    28    29   1
    31    28    35  ar
    32    29    30   1
    33    29    31  am
    34    31    32   2
    35    31    33   2
    36    31    34   1
    37    35    36  ar
    38    36    37   1
    39    37    38   2
    40    37    39  am
    41    39    40   1
    42    40    41   1
    43    40    42   1
    44    42    43  ar
    45    42    47  ar
    46    43    44  ar
    47    44    45  ar
    48    45    46  ar
    49    46    47  ar
    50     1    48   1
    51     1    49   1
    52     1    50   1
    53     2    51   1
    54     3    52   1
    55     3    53   1
    56     3    54   1
    57     4    55   1
    58     4    56   1
    59     5    57   1
    60     8    58   1
    61     9    59   1
    62    10    60   1
    63    10    61   1
    64    10    62   1
    65    11    63   1
    66    12    64   1
    67    12    65   1
    68    13    66   1
    69    13    67   1
    70    14    68   1
    71    15    69   1
    72    15    70   1
    73    17    71   1
    74    18    72   1
    75    19    73   1
    76    20    74   1
    77    21    75   1
    78    22    76   1
    79    26    77   1
    80    27    78   1
    81    30    79   1
    82    30    80   1
    83    30    81   1
    84    34    82   1
    85    34    83   1
    86    34    84   1
    87    35    85   1
    88    39    86   1
    89    40    87   1
    90    41    88   1
    91    41    89   1
    92    41    90   1
    93    43    91   1
    94    44    92   1
    95    45    93   1
    96    46    94   1
    97    47    95   1
@<TRIPOS>SUBSTRUCTURE
     1  MOL      1

