@<TRIPOS>MOLECULE
4gid_ligand_018
    95    97
SMALL
GAST_HUCK
****
This file was generated by PARSER (from files_GN.cpp)

@<TRIPOS>ATOM
      1 CBK        33.2466   -8.9970   16.4663 C.3         1 MOL      -0.0608
      2 CBL        34.7937   -9.0953   16.4559 C.3         1 MOL      -0.0265
      3 CBM        35.3468   -9.2833   15.0182 C.3         1 MOL      -0.0608
      4 CBN        35.4569   -7.9037   17.2036 C.3         1 MOL       0.0334
      5 NBO        35.1584   -6.6153   16.6522 N.am        1 MOL      -0.2820
      6 CBP        35.5835   -5.4544   17.1409 C.2         1 MOL       0.2271
      7 OBV        36.3055   -5.4259   18.1350 O.2         1 MOL      -0.3908
      8 CBG        35.2367   -4.1967   16.4802 C.3         1 MOL       0.0928
      9 CBH        33.7096   -3.8280   16.5862 C.3         1 MOL       0.1121
     10 CBJ        32.8159   -4.0920   15.3467 C.3         1 MOL      -0.0314
     11 OBI        33.0937   -4.4447   17.7201 O.3         1 MOL      -0.3840
     12 NBF        35.8037   -4.2693   15.1014 N.4         1 MOL       0.2497
     13 CAX        36.1056   -3.0033   14.3853 C.3         1 MOL      -0.0062
     14 CAW        37.4385   -2.3130   14.8516 C.3         1 MOL       0.0906
     15 CAY        37.3167   -0.7658   15.1203 C.3         1 MOL       0.0089
     16 CAZ        37.9146   -0.3390   16.4191 C.ar        1 MOL      -0.0406
     17 CBA        39.3047   -0.4729   16.6593 C.ar        1 MOL      -0.0603
     18 CBB        39.8607   -0.1068   17.8991 C.ar        1 MOL      -0.0686
     19 CBC        39.0389    0.4182   18.9137 C.ar        1 MOL      -0.0687
     20 CBD        37.6591    0.5686   18.6877 C.ar        1 MOL      -0.0686
     21 CBE        37.1030    0.1917   17.4532 C.ar        1 MOL      -0.0603
     22 NAV        38.4639   -2.5392   13.8594 N.am        1 MOL      -0.2761
     23 CAT        39.6520   -3.1009   14.0373 C.2         1 MOL       0.2026
     24 OAU        40.0540   -3.4405   15.1419 O.2         1 MOL      -0.3847
     25 CAP        40.5265   -3.1847   12.9645 C.ar        1 MOL       0.0397
     26 CAQ        41.6629   -2.3478   12.9054 C.ar        1 MOL      -0.0393
     27 CAO        40.3181   -4.1358   11.9336 C.ar        1 MOL      -0.0214
     28 CAN        41.2703   -4.3208   10.9033 C.ar        1 MOL       0.0754
     29 NAE        41.1522   -5.3215    9.9654 N.am        1 MOL      -0.1796
     30 CBT        41.1999   -5.0510    8.5497 C.3         1 MOL       0.0445
     31 SAB        41.0212   -6.9467   10.4399 S.o2        1 MOL       0.0593
     32 OAC        39.9974   -7.1739   11.6350 O.2         1 MOL      -0.1500
     33 OAD        40.3838   -7.8132    9.2662 O.2         1 MOL      -0.1500
     34 CAA        42.5982   -7.7174   10.8496 C.3         1 MOL       0.0790
     35 CAS        42.3960   -3.4641   10.8715 C.ar        1 MOL      -0.0214
     36 CAR        42.5814   -2.4565   11.8440 C.ar        1 MOL       0.0398
     37 CAL        43.6705   -1.6189   11.7711 C.2         1 MOL       0.2041
     38 OAM        44.7491   -2.0516   12.1512 O.2         1 MOL      -0.3845
     39 NBQ        43.5432   -0.4475   11.1670 N.am        1 MOL      -0.2723
     40 CBR        44.5339    0.5598   10.8864 C.3         1 MOL       0.0723
     41 CBS        44.8771    0.5151    9.3701 C.3         1 MOL      -0.0320
     42 CAI        45.7196    0.5856   11.8100 C.ar        1 MOL      -0.0183
     43 CAH        46.9254   -0.1058   11.5250 C.ar        1 MOL      -0.0582
     44 CAG        47.9990   -0.1105   12.4340 C.ar        1 MOL      -0.0685
     45 CAF        47.8873    0.5826   13.6517 C.ar        1 MOL      -0.0687
     46 CAK        46.7146    1.2952   13.9478 C.ar        1 MOL      -0.0685
     47 CAJ        45.6441    1.3022   13.0311 C.ar        1 MOL      -0.0582
     48 H1         32.8083   -9.9169   16.0706 H           1 MOL       0.0233
     49 H2         32.9002   -8.1598   15.8573 H           1 MOL       0.0233
     50 H3         32.8823   -8.8602   17.4879 H           1 MOL       0.0233
     51 H4         35.0594   -9.9956   17.0158 H           1 MOL       0.0315
     52 H5         36.4261   -9.4478   15.0451 H           1 MOL       0.0233
     53 H6         35.1392   -8.4094   14.3982 H           1 MOL       0.0233
     54 H7         34.8872  -10.1581   14.5500 H           1 MOL       0.0233
     55 H8         36.5429   -8.0427   17.2005 H           1 MOL       0.0522
     56 H9         35.1285   -7.9258   18.2467 H           1 MOL       0.0522
     57 H10        34.5857   -6.5820   15.8711 H           1 MOL       0.1853
     58 H11        35.7728   -3.4036   17.0124 H           1 MOL       0.1125
     59 H12        33.6484   -2.7498   16.7728 H           1 MOL       0.0674
     60 H13        31.7729   -3.8414   15.5762 H           1 MOL       0.0258
     61 H14        32.8698   -5.1380   15.0428 H           1 MOL       0.0258
     62 H15        33.1243   -3.4574   14.5127 H           1 MOL       0.0258
     63 H16        33.1063   -5.4086   17.5397 H           1 MOL       0.2102
     64 H17        35.1700   -4.8236   14.5213 H           1 MOL       0.2037
     65 H18        36.6774   -4.7857   15.1783 H           1 MOL       0.2037
     66 H19        35.2392   -2.3402   14.4740 H           1 MOL       0.0839
     67 H20        36.1843   -3.2630   13.3300 H           1 MOL       0.0839
     68 H21        37.7229   -2.7955   15.7905 H           1 MOL       0.0632
     69 H22        36.2688   -0.4646   15.0958 H           1 MOL       0.0450
     70 H23        37.8026   -0.1960   14.3225 H           1 MOL       0.0450
     71 H24        39.9236   -0.8322   15.9263 H           1 MOL       0.0557
     72 H25        40.8659   -0.1999   18.0570 H           1 MOL       0.0599
     73 H26        39.4415    0.6950   19.8109 H           1 MOL       0.0559
     74 H27        37.0594    0.9454   19.4268 H           1 MOL       0.0599
     75 H28        36.0951    0.2976   17.3170 H           1 MOL       0.0557
     76 H29        38.2955   -2.1823   12.9676 H           1 MOL       0.1852
     77 H30        41.8134   -1.6469   13.6398 H           1 MOL       0.0576
     78 H31        39.4805   -4.7229   11.9549 H           1 MOL       0.0566
     79 H32        41.2557   -3.9829    8.3288 H           1 MOL       0.0517
     80 H33        40.3042   -5.4395    8.0625 H           1 MOL       0.0517
     81 H34        42.0743   -5.5327    8.1023 H           1 MOL       0.0517
     82 H35        42.4291   -8.7411   11.1808 H           1 MOL       0.0487
     83 H36        43.0805   -7.1570   11.6487 H           1 MOL       0.0487
     84 H37        43.2442   -7.7229    9.9700 H           1 MOL       0.0487
     85 H38        43.0926   -3.5811   10.1282 H           1 MOL       0.0566
     86 H39        42.6715   -0.2723   10.7732 H           1 MOL       0.1875
     87 H40        44.0150    1.5148   11.0253 H           1 MOL       0.0716
     88 H41        45.6460    1.2557    9.1302 H           1 MOL       0.0274
     89 H42        43.9904    0.7370    8.7720 H           1 MOL       0.0274
     90 H43        45.2400   -0.4743    9.0822 H           1 MOL       0.0274
     91 H44        47.0261   -0.6463   10.6646 H           1 MOL       0.0557
     92 H45        48.8535   -0.6324   12.2171 H           1 MOL       0.0599
     93 H46        48.6625    0.5689   14.3184 H           1 MOL       0.0559
     94 H47        46.6358    1.7997   14.8341 H           1 MOL       0.0599
     95 H48        44.7921    1.8107   13.2813 H           1 MOL       0.0557
@<TRIPOS>BOND
     1     1     2   1
     2     2     3   1
     3     2     4   1
     4     4     5   1
     5     5     6  am
     6     6     7   2
     7     6     8   1
     8     8     9   1
     9     8    12   1
    10     9    10   1
    11     9    11   1
    12    12    13   1
    13    13    14   1
    14    14    15   1
    15    14    22   1
    16    15    16   1
    17    16    17  ar
    18    16    21  ar
    19    17    18  ar
    20    18    19  ar
    21    19    20  ar
    22    20    21  ar
    23    22    23  am
    24    23    24   2
    25    23    25   1
    26    25    26  ar
    27    25    27  ar
    28    26    36  ar
    29    27    28  ar
    30    28    29   1
    31    28    35  ar
    32    29    30   1
    33    29    31  am
    34    31    32   2
    35    31    33   2
    36    31    34   1
    37    35    36  ar
    38    36    37   1
    39    37    38   2
    40    37    39  am
    41    39    40   1
    42    40    41   1
    43    40    42   1
    44    42    43  ar
    45    42    47  ar
    46    43    44  ar
    47    44    45  ar
    48    45    46  ar
    49    46    47  ar
    50     1    48   1
    51     1    49   1
    52     1    50   1
    53     2    51   1
    54     3    52   1
    55     3    53   1
    56     3    54   1
    57     4    55   1
    58     4    56   1
    59     5    57   1
    60     8    58   1
    61     9    59   1
    62    10    60   1
    63    10    61   1
    64    10    62   1
    65    11    63   1
    66    12    64   1
    67    12    65   1
    68    13    66   1
    69    13    67   1
    70    14    68   1
    71    15    69   1
    72    15    70   1
    73    17    71   1
    74    18    72   1
    75    19    73   1
    76    20    74   1
    77    21    75   1
    78    22    76   1
    79    26    77   1
    80    27    78   1
    81    30    79   1
    82    30    80   1
    83    30    81   1
    84    34    82   1
    85    34    83   1
    86    34    84   1
    87    35    85   1
    88    39    86   1
    89    40    87   1
    90    41    88   1
    91    41    89   1
    92    41    90   1
    93    43    91   1
    94    44    92   1
    95    45    93   1
    96    46    94   1
    97    47    95   1
@<TRIPOS>SUBSTRUCTURE
     1  MOL      1

