@<TRIPOS>MOLECULE
4gqq_ligand_012
    27    27
SMALL
GAST_HUCK
****
This file was generated by PARSER (from files_GN.cpp)

@<TRIPOS>ATOM
      1 C5'        10.7740  -16.1458  107.1671 C.3         1 MOL      -0.0374
      2 C4'         9.8297  -17.3529  107.2545 C.3         1 MOL       0.0721
      3 O2'         9.0987  -17.3475  108.4724 O.3         1 MOL      -0.2816
      4 C3'         8.5021  -18.4409  109.0307 C.2         1 MOL       0.2442
      5 O1'         8.6336  -19.6682  108.4476 O.2         1 MOL      -0.3669
      6 C2'         7.8751  -18.3900  110.2456 C.2         1 MOL       0.0162
      7 C1'         7.0964  -17.3508  110.6657 C.2         1 MOL      -0.0475
      8 C1          6.5195  -17.2357  111.9383 C.ar        1 MOL      -0.0328
      9 C2          6.0286  -15.9752  112.3513 C.ar        1 MOL      -0.0287
     10 C6          6.4182  -18.3105  112.8637 C.ar        1 MOL      -0.0672
     11 C5          5.8480  -18.1176  114.1343 C.ar        1 MOL      -0.0342
     12 C4          5.3820  -16.8443  114.5282 C.ar        1 MOL       0.1232
     13 O4          4.8720  -16.6667  115.7754 O.3         1 MOL      -0.3320
     14 C3          5.4662  -15.7720  113.6200 C.ar        1 MOL       0.1218
     15 O3          5.0273  -14.5342  113.9640 O.3         1 MOL      -0.3356
     16 H1         11.2426  -16.1064  106.1902 H           1 MOL       0.0255
     17 H2         11.5492  -16.2543  107.9165 H           1 MOL       0.0255
     18 H3         10.2308  -15.2272  107.3470 H           1 MOL       0.0255
     19 H4         10.4135  -18.2691  107.2019 H           1 MOL       0.0607
     20 H5          9.1137  -17.3739  106.4432 H           1 MOL       0.0607
     21 H6          7.9867  -19.1978  110.8293 H           1 MOL       0.0617
     22 H7          6.9935  -16.5870  110.0206 H           1 MOL       0.0733
     23 H8          6.0763  -15.1809  111.7051 H           1 MOL       0.0541
     24 H9          6.7319  -19.2514  112.6355 H           1 MOL       0.0547
     25 H10         5.7467  -18.9093  114.7635 H           1 MOL       0.0531
     26 H11         5.5392  -16.1220  116.2556 H           1 MOL       0.2473
     27 H12         5.7099  -13.9084  113.6287 H           1 MOL       0.2444
@<TRIPOS>BOND
     1     1     2   1
     2     2     3   1
     3     3     4   1
     4     4     5   2
     5     4     6   1
     6     6     7   2
     7     7     8   1
     8     8     9  ar
     9     8    10  ar
    10     9    14  ar
    11    10    11  ar
    12    11    12  ar
    13    12    13   1
    14    12    14  ar
    15    14    15   1
    16     1    16   1
    17     1    17   1
    18     1    18   1
    19     2    19   1
    20     2    20   1
    21     6    21   1
    22     7    22   1
    23     9    23   1
    24    10    24   1
    25    11    25   1
    26    13    26   1
    27    15    27   1
@<TRIPOS>SUBSTRUCTURE
     1  MOL      1

