@<TRIPOS>MOLECULE
4gqq_ligand_010
    27    27
SMALL
GAST_HUCK
****
This file was generated by PARSER (from files_GN.cpp)

@<TRIPOS>ATOM
      1 C5'         7.5064  -19.3042  122.7700 C.3         1 MOL      -0.0374
      2 C4'         8.2472  -18.2980  121.8685 C.3         1 MOL       0.0721
      3 O2'         7.5864  -18.2153  120.5938 O.3         1 MOL      -0.2816
      4 C3'         8.0341  -17.5505  119.4938 C.2         1 MOL       0.2442
      5 O1'         9.2027  -16.8583  119.5479 O.2         1 MOL      -0.3669
      6 C2'         7.3088  -17.6709  118.3125 C.2         1 MOL       0.0162
      7 C1'         7.6030  -17.0507  117.1482 C.2         1 MOL      -0.0475
      8 C1          6.8873  -17.2719  115.9683 C.ar        1 MOL      -0.0328
      9 C2          6.1154  -16.2259  115.4153 C.ar        1 MOL      -0.0287
     10 C6          6.9519  -18.5014  115.2664 C.ar        1 MOL      -0.0672
     11 C5          6.2118  -18.6878  114.0784 C.ar        1 MOL      -0.0342
     12 C4          5.3752  -17.6690  113.5813 C.ar        1 MOL       0.1232
     13 O4          4.6410  -17.9256  112.4629 O.3         1 MOL      -0.3320
     14 C3          5.3523  -16.4238  114.2468 C.ar        1 MOL       0.1218
     15 O3          4.5801  -15.3946  113.8017 O.3         1 MOL      -0.3356
     16 H1          8.0362  -19.4180  123.7208 H           1 MOL       0.0255
     17 H2          7.4548  -20.2791  122.2758 H           1 MOL       0.0255
     18 H3          6.4890  -18.9530  122.9714 H           1 MOL       0.0255
     19 H4          9.2764  -18.6406  121.7249 H           1 MOL       0.0607
     20 H5          8.2639  -17.3187  122.3567 H           1 MOL       0.0607
     21 H6          6.4963  -18.2570  118.3372 H           1 MOL       0.0617
     22 H7          8.3170  -16.3446  117.1378 H           1 MOL       0.0733
     23 H8          6.0483  -15.3151  115.9026 H           1 MOL       0.0541
     24 H9          7.5309  -19.2654  115.6099 H           1 MOL       0.0547
     25 H10         6.2572  -19.5841  113.5908 H           1 MOL       0.0531
     26 H11         3.7432  -17.5511  112.6394 H           1 MOL       0.2473
     27 H12         4.6258  -15.4210  112.8141 H           1 MOL       0.2444
@<TRIPOS>BOND
     1     1     2   1
     2     2     3   1
     3     3     4   1
     4     4     5   2
     5     4     6   1
     6     6     7   2
     7     7     8   1
     8     8     9  ar
     9     8    10  ar
    10     9    14  ar
    11    10    11  ar
    12    11    12  ar
    13    12    13   1
    14    12    14  ar
    15    14    15   1
    16     1    16   1
    17     1    17   1
    18     1    18   1
    19     2    19   1
    20     2    20   1
    21     6    21   1
    22     7    22   1
    23     9    23   1
    24    10    24   1
    25    11    25   1
    26    13    26   1
    27    15    27   1
@<TRIPOS>SUBSTRUCTURE
     1  MOL      1

