@<TRIPOS>MOLECULE
4gqq_ligand_015
    27    27
SMALL
GAST_HUCK
****
This file was generated by PARSER (from files_GN.cpp)

@<TRIPOS>ATOM
      1 C5'         7.4513  -13.3901  119.3176 C.3         1 MOL      -0.0374
      2 C4'         8.6598  -13.9605  118.5533 C.3         1 MOL       0.0721
      3 O2'         8.3002  -14.2566  117.1990 O.3         1 MOL      -0.2816
      4 C3'         8.4383  -13.4659  116.0985 C.2         1 MOL       0.2442
      5 O1'         8.9701  -12.2262  116.2151 O.2         1 MOL      -0.3669
      6 C2'         8.0374  -13.8935  114.8466 C.2         1 MOL       0.0162
      7 C1'         7.4269  -15.0671  114.5984 C.2         1 MOL      -0.0475
      8 C1          7.0500  -15.5031  113.3282 C.ar        1 MOL      -0.0328
      9 C2          7.8788  -15.3115  112.1943 C.ar        1 MOL      -0.0287
     10 C6          5.8288  -16.2011  113.1552 C.ar        1 MOL      -0.0672
     11 C5          5.4332  -16.6587  111.8851 C.ar        1 MOL      -0.0342
     12 C4          6.2530  -16.4365  110.7629 C.ar        1 MOL       0.1232
     13 O4          5.8363  -16.8722  109.5478 O.3         1 MOL      -0.3320
     14 C3          7.4879  -15.7776  110.9236 C.ar        1 MOL       0.1218
     15 O3          8.3247  -15.6144  109.8715 O.3         1 MOL      -0.3356
     16 H1          7.7199  -13.2156  120.3605 H           1 MOL       0.0255
     17 H2          6.6190  -14.0952  119.2809 H           1 MOL       0.0255
     18 H3          7.1369  -12.4447  118.8724 H           1 MOL       0.0255
     19 H4          8.9766  -14.8922  119.0247 H           1 MOL       0.0607
     20 H5          9.4953  -13.2577  118.5983 H           1 MOL       0.0607
     21 H6          8.1821  -13.2624  114.0894 H           1 MOL       0.0617
     22 H7          7.1842  -15.6525  115.3678 H           1 MOL       0.0733
     23 H8          8.7890  -14.8528  112.2894 H           1 MOL       0.0541
     24 H9          5.1999  -16.3596  113.9482 H           1 MOL       0.0547
     25 H10         4.5403  -17.1478  111.7767 H           1 MOL       0.0531
     26 H11         6.2244  -16.2521  108.8932 H           1 MOL       0.2473
     27 H12         8.0536  -14.7667  109.4647 H           1 MOL       0.2444
@<TRIPOS>BOND
     1     1     2   1
     2     2     3   1
     3     3     4   1
     4     4     5   2
     5     4     6   1
     6     6     7   2
     7     7     8   1
     8     8     9  ar
     9     8    10  ar
    10     9    14  ar
    11    10    11  ar
    12    11    12  ar
    13    12    13   1
    14    12    14  ar
    15    14    15   1
    16     1    16   1
    17     1    17   1
    18     1    18   1
    19     2    19   1
    20     2    20   1
    21     6    21   1
    22     7    22   1
    23     9    23   1
    24    10    24   1
    25    11    25   1
    26    13    26   1
    27    15    27   1
@<TRIPOS>SUBSTRUCTURE
     1  MOL      1

