@<TRIPOS>MOLECULE
4gqq_ligand_005
    27    27
SMALL
GAST_HUCK
****
This file was generated by PARSER (from files_GN.cpp)

@<TRIPOS>ATOM
      1 C5'         6.9451  -17.1682  110.4577 C.3         1 MOL      -0.0374
      2 C4'         5.9585  -16.7442  111.5695 C.3         1 MOL       0.0721
      3 O2'         6.3429  -17.1234  112.8991 O.3         1 MOL      -0.2816
      4 C3'         6.3337  -18.3836  113.4293 C.2         1 MOL       0.2442
      5 O1'         6.0276  -19.4722  112.6694 O.2         1 MOL      -0.3669
      6 C2'         6.7811  -18.5962  114.7162 C.2         1 MOL       0.0162
      7 C1'         6.2905  -17.9659  115.8070 C.2         1 MOL      -0.0475
      8 C1          6.7262  -18.1395  117.1243 C.ar        1 MOL      -0.0328
      9 C2          7.4100  -19.3031  117.5701 C.ar        1 MOL      -0.0287
     10 C6          6.4755  -17.1232  118.0845 C.ar        1 MOL      -0.0672
     11 C5          6.9469  -17.2314  119.4067 C.ar        1 MOL      -0.0342
     12 C4          7.6489  -18.3801  119.8129 C.ar        1 MOL       0.1232
     13 O4          8.1433  -18.4600  121.0757 O.3         1 MOL      -0.3320
     14 C3          7.8633  -19.4302  118.8970 C.ar        1 MOL       0.1218
     15 O3          8.5151  -20.5550  119.2793 O.3         1 MOL      -0.3356
     16 H1          6.5691  -16.8218  109.4926 H           1 MOL       0.0255
     17 H2          7.0518  -18.2532  110.4261 H           1 MOL       0.0255
     18 H3          7.9248  -16.7169  110.6252 H           1 MOL       0.0255
     19 H4          4.9657  -17.1496  111.3408 H           1 MOL       0.0607
     20 H5          5.8978  -15.6535  111.5691 H           1 MOL       0.0607
     21 H6          7.5028  -19.2699  114.8354 H           1 MOL       0.0617
     22 H7          5.5509  -17.3092  115.6620 H           1 MOL       0.0733
     23 H8          7.5748  -20.0756  116.9373 H           1 MOL       0.0541
     24 H9          5.9826  -16.2592  117.8170 H           1 MOL       0.0547
     25 H10         6.7893  -16.4664  120.0768 H           1 MOL       0.0531
     26 H11         7.4253  -18.8683  121.6055 H           1 MOL       0.2473
     27 H12         7.8058  -21.2346  119.3441 H           1 MOL       0.2444
@<TRIPOS>BOND
     1     1     2   1
     2     2     3   1
     3     3     4   1
     4     4     5   2
     5     4     6   1
     6     6     7   2
     7     7     8   1
     8     8     9  ar
     9     8    10  ar
    10     9    14  ar
    11    10    11  ar
    12    11    12  ar
    13    12    13   1
    14    12    14  ar
    15    14    15   1
    16     1    16   1
    17     1    17   1
    18     1    18   1
    19     2    19   1
    20     2    20   1
    21     6    21   1
    22     7    22   1
    23     9    23   1
    24    10    24   1
    25    11    25   1
    26    13    26   1
    27    15    27   1
@<TRIPOS>SUBSTRUCTURE
     1  MOL      1

