@<TRIPOS>MOLECULE
4gqq_ligand_019
    27    27
SMALL
GAST_HUCK
****
This file was generated by PARSER (from files_GN.cpp)

@<TRIPOS>ATOM
      1 C5'         5.0990  -17.2977  113.1339 C.3         1 MOL      -0.0374
      2 C4'         5.9475  -18.5626  113.3411 C.3         1 MOL       0.0721
      3 O2'         6.1515  -18.8113  114.7402 O.3         1 MOL      -0.2816
      4 C3'         7.3190  -18.7436  115.4554 C.2         1 MOL       0.2442
      5 O1'         8.4754  -18.3056  114.8642 O.2         1 MOL      -0.3669
      6 C2'         7.2799  -19.0419  116.8023 C.2         1 MOL       0.0162
      7 C1'         8.2613  -19.7411  117.4110 C.2         1 MOL      -0.0475
      8 C1          8.2478  -20.1000  118.7474 C.ar        1 MOL      -0.0328
      9 C2          8.6243  -19.1787  119.7661 C.ar        1 MOL      -0.0287
     10 C6          7.8788  -21.4216  119.1155 C.ar        1 MOL      -0.0672
     11 C5          7.8825  -21.8107  120.4711 C.ar        1 MOL      -0.0342
     12 C4          8.2983  -20.9039  121.4793 C.ar        1 MOL       0.1232
     13 O4          8.2728  -21.2879  122.7831 O.3         1 MOL      -0.3320
     14 C3          8.6885  -19.5887  121.1185 C.ar        1 MOL       0.1218
     15 O3          9.1025  -18.7026  122.0594 O.3         1 MOL      -0.3356
     16 H1          4.9490  -17.1302  112.0655 H           1 MOL       0.0255
     17 H2          5.6186  -16.4453  113.5599 H           1 MOL       0.0255
     18 H3          4.1370  -17.3919  113.6269 H           1 MOL       0.0255
     19 H4          6.8860  -18.4455  112.7890 H           1 MOL       0.0607
     20 H5          5.4287  -19.4331  112.9571 H           1 MOL       0.0607
     21 H6          6.4572  -18.7847  117.3085 H           1 MOL       0.0617
     22 H7          8.9753  -20.1555  116.8500 H           1 MOL       0.0733
     23 H8          8.8600  -18.2030  119.5356 H           1 MOL       0.0541
     24 H9          7.5789  -22.1021  118.4036 H           1 MOL       0.0547
     25 H10         7.5818  -22.7569  120.7063 H           1 MOL       0.0531
     26 H11         8.7847  -22.1206  122.7908 H           1 MOL       0.2473
     27 H12         9.8107  -19.1951  122.5667 H           1 MOL       0.2444
@<TRIPOS>BOND
     1     1     2   1
     2     2     3   1
     3     3     4   1
     4     4     5   2
     5     4     6   1
     6     6     7   2
     7     7     8   1
     8     8     9  ar
     9     8    10  ar
    10     9    14  ar
    11    10    11  ar
    12    11    12  ar
    13    12    13   1
    14    12    14  ar
    15    14    15   1
    16     1    16   1
    17     1    17   1
    18     1    18   1
    19     2    19   1
    20     2    20   1
    21     6    21   1
    22     7    22   1
    23     9    23   1
    24    10    24   1
    25    11    25   1
    26    13    26   1
    27    15    27   1
@<TRIPOS>SUBSTRUCTURE
     1  MOL      1

