@<TRIPOS>MOLECULE
4gqq_ligand_021
    27    27
SMALL
GAST_HUCK
****
This file was generated by PARSER (from files_GN.cpp)

@<TRIPOS>ATOM
      1 C5'         6.7552  -15.5480  117.1923 C.3         1 MOL      -0.0374
      2 C4'         5.6328  -16.2194  116.3745 C.3         1 MOL       0.0721
      3 O2'         6.0494  -16.4375  115.0234 O.3         1 MOL      -0.2816
      4 C3'         5.8859  -15.6194  113.9457 C.2         1 MOL       0.2442
      5 O1'         5.2542  -14.4277  114.0889 O.2         1 MOL      -0.3669
      6 C2'         6.3621  -15.9759  112.6967 C.2         1 MOL       0.0162
      7 C1'         7.1269  -17.0601  112.4563 C.2         1 MOL      -0.0475
      8 C1          7.6408  -17.4418  111.2142 C.ar        1 MOL      -0.0328
      9 C2          8.8650  -18.1547  111.1727 C.ar        1 MOL      -0.0287
     10 C6          6.9800  -17.1881  109.9849 C.ar        1 MOL      -0.0672
     11 C5          7.5222  -17.6356  108.7654 C.ar        1 MOL      -0.0342
     12 C4          8.7510  -18.3245  108.7460 C.ar        1 MOL       0.1232
     13 O4          9.2731  -18.7429  107.5664 O.3         1 MOL      -0.3320
     14 C3          9.4224  -18.5823  109.9524 C.ar        1 MOL       0.1218
     15 O3         10.6054  -19.2450  109.9584 O.3         1 MOL      -0.3356
     16 H1          6.4175  -15.3766  118.2159 H           1 MOL       0.0255
     17 H2          7.0249  -14.5920  116.7434 H           1 MOL       0.0255
     18 H3          7.6372  -16.1916  117.2131 H           1 MOL       0.0255
     19 H4          4.7279  -15.6089  116.4093 H           1 MOL       0.0607
     20 H5          5.4012  -17.1877  116.8209 H           1 MOL       0.0607
     21 H6          6.1544  -15.3598  111.9441 H           1 MOL       0.0617
     22 H7          7.4017  -17.6083  113.2400 H           1 MOL       0.0733
     23 H8          9.3801  -18.3505  112.0346 H           1 MOL       0.0541
     24 H9          6.0776  -16.7070  109.9630 H           1 MOL       0.0547
     25 H10         7.0216  -17.4641  107.8929 H           1 MOL       0.0531
     26 H11         9.7273  -17.9598  107.2023 H           1 MOL       0.2473
     27 H12        11.2724  -18.5664  109.7320 H           1 MOL       0.2444
@<TRIPOS>BOND
     1     1     2   1
     2     2     3   1
     3     3     4   1
     4     4     5   2
     5     4     6   1
     6     6     7   2
     7     7     8   1
     8     8     9  ar
     9     8    10  ar
    10     9    14  ar
    11    10    11  ar
    12    11    12  ar
    13    12    13   1
    14    12    14  ar
    15    14    15   1
    16     1    16   1
    17     1    17   1
    18     1    18   1
    19     2    19   1
    20     2    20   1
    21     6    21   1
    22     7    22   1
    23     9    23   1
    24    10    24   1
    25    11    25   1
    26    13    26   1
    27    15    27   1
@<TRIPOS>SUBSTRUCTURE
     1  MOL      1

