@<TRIPOS>MOLECULE
4gqq_ligand_018
    27    27
SMALL
GAST_HUCK
****
This file was generated by PARSER (from files_GN.cpp)

@<TRIPOS>ATOM
      1 C5'         6.0432  -17.0741  121.3474 C.3         1 MOL      -0.0374
      2 C4'         7.2005  -17.4274  120.3906 C.3         1 MOL       0.0721
      3 O2'         6.7907  -17.3921  119.0145 O.3         1 MOL      -0.2816
      4 C3'         6.5429  -16.2954  118.2406 C.2         1 MOL       0.2442
      5 O1'         6.7078  -15.0355  118.7463 O.2         1 MOL      -0.3669
      6 C2'         6.1705  -16.4936  116.9286 C.2         1 MOL       0.0162
      7 C1'         6.3044  -15.5889  115.9447 C.2         1 MOL      -0.0475
      8 C1          6.0717  -15.8578  114.6029 C.ar        1 MOL      -0.0328
      9 C2          7.0579  -15.5023  113.6416 C.ar        1 MOL      -0.0287
     10 C6          4.8817  -16.4785  114.1320 C.ar        1 MOL      -0.0672
     11 C5          4.7082  -16.7941  112.7763 C.ar        1 MOL      -0.0342
     12 C4          5.7110  -16.4773  111.8448 C.ar        1 MOL       0.1232
     13 O4          5.5312  -16.8332  110.5498 O.3         1 MOL      -0.3320
     14 C3          6.8910  -15.8285  112.2800 C.ar        1 MOL       0.1218
     15 O3          7.8551  -15.5359  111.3706 O.3         1 MOL      -0.3356
     16 H1          6.3833  -17.1406  122.3870 H           1 MOL       0.0255
     17 H2          5.2165  -17.7817  121.2056 H           1 MOL       0.0255
     18 H3          5.6798  -16.0582  121.1572 H           1 MOL       0.0255
     19 H4          7.5314  -18.4439  120.6055 H           1 MOL       0.0607
     20 H5          8.0488  -16.7528  120.5630 H           1 MOL       0.0607
     21 H6          5.8714  -17.4031  116.6827 H           1 MOL       0.0617
     22 H7          6.7169  -14.7040  116.1751 H           1 MOL       0.0733
     23 H8          7.9283  -15.0491  113.9349 H           1 MOL       0.0541
     24 H9          4.1205  -16.7001  114.7876 H           1 MOL       0.0547
     25 H10         3.8405  -17.2487  112.4677 H           1 MOL       0.0531
     26 H11         5.8561  -16.0679  110.0149 H           1 MOL       0.2473
     27 H12         8.1265  -14.6023  111.5441 H           1 MOL       0.2444
@<TRIPOS>BOND
     1     1     2   1
     2     2     3   1
     3     3     4   1
     4     4     5   2
     5     4     6   1
     6     6     7   2
     7     7     8   1
     8     8     9  ar
     9     8    10  ar
    10     9    14  ar
    11    10    11  ar
    12    11    12  ar
    13    12    13   1
    14    12    14  ar
    15    14    15   1
    16     1    16   1
    17     1    17   1
    18     1    18   1
    19     2    19   1
    20     2    20   1
    21     6    21   1
    22     7    22   1
    23     9    23   1
    24    10    24   1
    25    11    25   1
    26    13    26   1
    27    15    27   1
@<TRIPOS>SUBSTRUCTURE
     1  MOL      1

