@<TRIPOS>MOLECULE
4gqq_ligand_004
    27    27
SMALL
GAST_HUCK
****
This file was generated by PARSER (from files_GN.cpp)

@<TRIPOS>ATOM
      1 C5'         8.7016  -21.3802  121.4555 C.3         1 MOL      -0.0374
      2 C4'         8.3893  -21.7506  120.0020 C.3         1 MOL       0.0721
      3 O2'         7.8819  -20.6292  119.2642 O.3         1 MOL      -0.2816
      4 C3'         8.2531  -20.2039  118.0336 C.2         1 MOL       0.2442
      5 O1'         9.2053  -20.8754  117.3327 O.2         1 MOL      -0.3669
      6 C2'         7.5801  -19.1372  117.4855 C.2         1 MOL       0.0162
      7 C1'         7.5528  -18.8595  116.1642 C.2         1 MOL      -0.0475
      8 C1          6.8539  -17.7950  115.5951 C.ar        1 MOL      -0.0328
      9 C2          7.4968  -16.9598  114.6470 C.ar        1 MOL      -0.0287
     10 C6          5.5020  -17.5387  115.9170 C.ar        1 MOL      -0.0672
     11 C5          4.8067  -16.4800  115.3028 C.ar        1 MOL      -0.0342
     12 C4          5.4656  -15.6513  114.3804 C.ar        1 MOL       0.1232
     13 O4          4.7945  -14.6251  113.8222 O.3         1 MOL      -0.3320
     14 C3          6.8147  -15.8732  114.0607 C.ar        1 MOL       0.1218
     15 O3          7.4857  -15.0390  113.2191 O.3         1 MOL      -0.3356
     16 H1          9.0517  -22.2591  121.9942 H           1 MOL       0.0255
     17 H2          7.8025  -21.0120  121.9450 H           1 MOL       0.0255
     18 H3          9.4745  -20.6140  121.5047 H           1 MOL       0.0255
     19 H4          7.6384  -22.5396  120.0110 H           1 MOL       0.0607
     20 H5          9.2786  -22.1432  119.5192 H           1 MOL       0.0607
     21 H6          7.0169  -18.6078  118.1093 H           1 MOL       0.0617
     22 H7          8.0624  -19.4332  115.5336 H           1 MOL       0.0733
     23 H8          8.4797  -17.1224  114.3928 H           1 MOL       0.0541
     24 H9          5.0050  -18.1407  116.5750 H           1 MOL       0.0547
     25 H10         3.8251  -16.3168  115.5321 H           1 MOL       0.0531
     26 H11         4.8163  -14.7970  112.8373 H           1 MOL       0.2473
     27 H12         8.1443  -14.5750  113.7988 H           1 MOL       0.2444
@<TRIPOS>BOND
     1     1     2   1
     2     2     3   1
     3     3     4   1
     4     4     5   2
     5     4     6   1
     6     6     7   2
     7     7     8   1
     8     8     9  ar
     9     8    10  ar
    10     9    14  ar
    11    10    11  ar
    12    11    12  ar
    13    12    13   1
    14    12    14  ar
    15    14    15   1
    16     1    16   1
    17     1    17   1
    18     1    18   1
    19     2    19   1
    20     2    20   1
    21     6    21   1
    22     7    22   1
    23     9    23   1
    24    10    24   1
    25    11    25   1
    26    13    26   1
    27    15    27   1
@<TRIPOS>SUBSTRUCTURE
     1  MOL      1

