@<TRIPOS>MOLECULE
4gqq_ligand_000
    27    27
SMALL
GAST_HUCK
****
This file was generated by PARSER (from files_GN.cpp)

@<TRIPOS>ATOM
      1 C5'         4.8974  -17.6608  122.5423 C.3         1 MOL      -0.0374
      2 C4'         6.3237  -17.6452  121.9446 C.3         1 MOL       0.0721
      3 O2'         6.2864  -17.2506  120.5644 O.3         1 MOL      -0.2816
      4 C3'         6.9474  -17.7962  119.5076 C.2         1 MOL       0.2442
      5 O1'         7.8532  -18.7846  119.7008 O.2         1 MOL      -0.3669
      6 C2'         6.6080  -17.3607  118.2412 C.2         1 MOL       0.0162
      7 C1'         6.4653  -18.1727  117.1612 C.2         1 MOL      -0.0475
      8 C1          6.0093  -17.8075  115.8908 C.ar        1 MOL      -0.0328
      9 C2          6.2810  -18.6870  114.8070 C.ar        1 MOL      -0.0287
     10 C6          5.2455  -16.6422  115.6002 C.ar        1 MOL      -0.0672
     11 C5          4.7671  -16.3842  114.3028 C.ar        1 MOL      -0.0342
     12 C4          5.0315  -17.2833  113.2574 C.ar        1 MOL       0.1232
     13 O4          4.5523  -17.0478  112.0095 O.3         1 MOL      -0.3320
     14 C3          5.7910  -18.4373  113.5141 C.ar        1 MOL       0.1218
     15 O3          6.0331  -19.3331  112.5199 O.3         1 MOL      -0.3356
     16 H1          4.9346  -17.9733  123.5953 H           1 MOL       0.0255
     17 H2          4.2493  -18.3513  121.9941 H           1 MOL       0.0255
     18 H3          4.4645  -16.6523  122.4891 H           1 MOL       0.0255
     19 H4          6.7773  -18.6292  122.0780 H           1 MOL       0.0607
     20 H5          6.9241  -16.9213  122.5047 H           1 MOL       0.0607
     21 H6          6.3862  -16.4041  118.1428 H           1 MOL       0.0617
     22 H7          6.6981  -19.1313  117.2999 H           1 MOL       0.0733
     23 H8          6.8343  -19.5296  114.9549 H           1 MOL       0.0541
     24 H9          5.0007  -15.9679  116.3311 H           1 MOL       0.0547
     25 H10         4.2142  -15.5417  114.1278 H           1 MOL       0.0531
     26 H11         3.5728  -16.9825  112.1103 H           1 MOL       0.2473
     27 H12         6.8343  -19.8291  112.7975 H           1 MOL       0.2444
@<TRIPOS>BOND
     1     1     2   1
     2     2     3   1
     3     3     4   1
     4     4     5   2
     5     4     6   1
     6     6     7   2
     7     7     8   1
     8     8     9  ar
     9     8    10  ar
    10     9    14  ar
    11    10    11  ar
    12    11    12  ar
    13    12    13   1
    14    12    14  ar
    15    14    15   1
    16     1    16   1
    17     1    17   1
    18     1    18   1
    19     2    19   1
    20     2    20   1
    21     6    21   1
    22     7    22   1
    23     9    23   1
    24    10    24   1
    25    11    25   1
    26    13    26   1
    27    15    27   1
@<TRIPOS>SUBSTRUCTURE
     1  MOL      1

