@<TRIPOS>MOLECULE
4gqq_ligand_020
    27    27
SMALL
GAST_HUCK
****
This file was generated by PARSER (from files_GN.cpp)

@<TRIPOS>ATOM
      1 C5'         5.5720  -17.4214  114.6304 C.3         1 MOL      -0.0374
      2 C4'         4.8560  -16.9972  113.3352 C.3         1 MOL       0.0721
      3 O2'         5.6790  -17.3147  112.2049 O.3         1 MOL      -0.2816
      4 C3'         6.7000  -16.5903  111.6719 C.2         1 MOL       0.2442
      5 O1'         7.0349  -15.3952  112.2136 O.2         1 MOL      -0.3669
      6 C2'         7.3940  -17.0264  110.5578 C.2         1 MOL       0.0162
      7 C1'         7.7500  -18.3057  110.3282 C.2         1 MOL      -0.0475
      8 C1          8.4113  -18.7964  109.1924 C.ar        1 MOL      -0.0328
      9 C2          9.1318  -20.0174  109.2794 C.ar        1 MOL      -0.0287
     10 C6          8.3650  -18.1535  107.9278 C.ar        1 MOL      -0.0672
     11 C5          9.0316  -18.6870  106.8117 C.ar        1 MOL      -0.0342
     12 C4          9.7591  -19.8844  106.9257 C.ar        1 MOL       0.1232
     13 O4         10.3960  -20.3659  105.8273 O.3         1 MOL      -0.3320
     14 C3          9.8044  -20.5573  108.1632 C.ar        1 MOL       0.1218
     15 O3         10.4960  -21.7246  108.2591 O.3         1 MOL      -0.3356
     16 H1          4.9401  -17.2062  115.4939 H           1 MOL       0.0255
     17 H2          6.5110  -16.8743  114.7344 H           1 MOL       0.0255
     18 H3          5.7854  -18.4917  114.6081 H           1 MOL       0.0255
     19 H4          4.6193  -15.9312  113.3860 H           1 MOL       0.0607
     20 H5          3.9182  -17.5472  113.2367 H           1 MOL       0.0607
     21 H6          7.6729  -16.3259  109.9120 H           1 MOL       0.0617
     22 H7          7.5497  -18.9655  111.0468 H           1 MOL       0.0733
     23 H8          9.1839  -20.5238  110.1687 H           1 MOL       0.0541
     24 H9          7.8260  -17.2978  107.7911 H           1 MOL       0.0547
     25 H10         8.9825  -18.2013  105.9129 H           1 MOL       0.0531
     26 H11        11.2822  -20.6618  106.1292 H           1 MOL       0.2473
     27 H12        10.3713  -22.0534  109.1725 H           1 MOL       0.2444
@<TRIPOS>BOND
     1     1     2   1
     2     2     3   1
     3     3     4   1
     4     4     5   2
     5     4     6   1
     6     6     7   2
     7     7     8   1
     8     8     9  ar
     9     8    10  ar
    10     9    14  ar
    11    10    11  ar
    12    11    12  ar
    13    12    13   1
    14    12    14  ar
    15    14    15   1
    16     1    16   1
    17     1    17   1
    18     1    18   1
    19     2    19   1
    20     2    20   1
    21     6    21   1
    22     7    22   1
    23     9    23   1
    24    10    24   1
    25    11    25   1
    26    13    26   1
    27    15    27   1
@<TRIPOS>SUBSTRUCTURE
     1  MOL      1

