@<TRIPOS>MOLECULE
4gqq_ligand_007
    27    27
SMALL
GAST_HUCK
****
This file was generated by PARSER (from files_GN.cpp)

@<TRIPOS>ATOM
      1 C5'        11.2582  -11.7800  117.4813 C.3         1 MOL      -0.0374
      2 C4'        10.8326  -11.0088  116.2124 C.3         1 MOL       0.0721
      3 O2'         9.9446  -11.7706  115.3857 O.3         1 MOL      -0.2816
      4 C3'         8.6478  -12.1026  115.6340 C.2         1 MOL       0.2442
      5 O1'         8.0475  -11.6690  116.7675 O.2         1 MOL      -0.3669
      6 C2'         7.9046  -12.8622  114.7466 C.2         1 MOL       0.0162
      7 C1'         8.4230  -13.7817  113.9091 C.2         1 MOL      -0.0475
      8 C1          7.7098  -14.5790  113.0004 C.ar        1 MOL      -0.0328
      9 C2          8.3033  -14.8890  111.7482 C.ar        1 MOL      -0.0287
     10 C6          6.4259  -15.1252  113.2676 C.ar        1 MOL      -0.0672
     11 C5          5.7553  -15.9131  112.3149 C.ar        1 MOL      -0.0342
     12 C4          6.3439  -16.1708  111.0648 C.ar        1 MOL       0.1232
     13 O4          5.6592  -16.8964  110.1432 O.3         1 MOL      -0.3320
     14 C3          7.6318  -15.6721  110.7895 C.ar        1 MOL       0.1218
     15 O3          8.2264  -15.9617  109.6076 O.3         1 MOL      -0.3356
     16 H1         11.9489  -11.1755  118.0667 H           1 MOL       0.0255
     17 H2         11.7541  -12.7112  117.2063 H           1 MOL       0.0255
     18 H3         10.3904  -12.0086  118.0998 H           1 MOL       0.0255
     19 H4         11.7251  -10.7836  115.6239 H           1 MOL       0.0607
     20 H5         10.3607  -10.0626  116.4936 H           1 MOL       0.0607
     21 H6          6.9267  -12.6878  114.7268 H           1 MOL       0.0617
     22 H7          9.4147  -13.8888  113.9131 H           1 MOL       0.0733
     23 H8          9.2357  -14.5339  111.5145 H           1 MOL       0.0541
     24 H9          5.9622  -14.9729  114.1652 H           1 MOL       0.0547
     25 H10         4.8316  -16.2951  112.5340 H           1 MOL       0.0531
     26 H11         5.6843  -16.3728  109.3133 H           1 MOL       0.2473
     27 H12         8.3472  -15.0949  109.1688 H           1 MOL       0.2444
@<TRIPOS>BOND
     1     1     2   1
     2     2     3   1
     3     3     4   1
     4     4     5   2
     5     4     6   1
     6     6     7   2
     7     7     8   1
     8     8     9  ar
     9     8    10  ar
    10     9    14  ar
    11    10    11  ar
    12    11    12  ar
    13    12    13   1
    14    12    14  ar
    15    14    15   1
    16     1    16   1
    17     1    17   1
    18     1    18   1
    19     2    19   1
    20     2    20   1
    21     6    21   1
    22     7    22   1
    23     9    23   1
    24    10    24   1
    25    11    25   1
    26    13    26   1
    27    15    27   1
@<TRIPOS>SUBSTRUCTURE
     1  MOL      1

