@<TRIPOS>MOLECULE
4gqq_ligand_014
    27    27
SMALL
GAST_HUCK
****
This file was generated by PARSER (from files_GN.cpp)

@<TRIPOS>ATOM
      1 C5'         6.4414  -16.4945  109.6300 C.3         1 MOL      -0.0374
      2 C4'         7.3182  -17.4026  110.5107 C.3         1 MOL       0.0721
      3 O2'         7.2582  -16.9572  111.8722 O.3         1 MOL      -0.2816
      4 C3'         6.4843  -17.4400  112.8810 C.2         1 MOL       0.2442
      5 O1'         5.5925  -18.4330  112.6459 O.2         1 MOL      -0.3669
      6 C2'         6.6602  -16.9092  114.1424 C.2         1 MOL       0.0162
      7 C1'         6.3839  -17.5864  115.2721 C.2         1 MOL      -0.0475
      8 C1          6.5800  -17.1390  116.5820 C.ar        1 MOL      -0.0328
      9 C2          6.6757  -15.7673  116.9407 C.ar        1 MOL      -0.0287
     10 C6          6.6783  -18.0975  117.6246 C.ar        1 MOL      -0.0672
     11 C5          6.8632  -17.7101  118.9596 C.ar        1 MOL      -0.0342
     12 C4          6.9466  -16.3477  119.2919 C.ar        1 MOL       0.1232
     13 O4          7.1068  -15.9823  120.5868 O.3         1 MOL      -0.3320
     14 C3          6.8588  -15.3733  118.2823 C.ar        1 MOL       0.1218
     15 O3          6.9467  -14.0610  118.6066 O.3         1 MOL      -0.3356
     16 H1          6.4490  -16.8522  108.6007 H           1 MOL       0.0255
     17 H2          6.8224  -15.4711  109.6575 H           1 MOL       0.0255
     18 H3          5.4196  -16.5048  110.0024 H           1 MOL       0.0255
     19 H4          8.3567  -17.3471  110.1785 H           1 MOL       0.0607
     20 H5          6.9961  -18.4415  110.4191 H           1 MOL       0.0607
     21 H6          7.1134  -16.0295  114.1974 H           1 MOL       0.0617
     22 H7          6.0768  -18.5279  115.1628 H           1 MOL       0.0733
     23 H8          6.5814  -15.0310  116.2370 H           1 MOL       0.0541
     24 H9          6.6235  -19.0985  117.4113 H           1 MOL       0.0547
     25 H10         6.9400  -18.4224  119.6884 H           1 MOL       0.0531
     26 H11         8.0749  -16.0048  120.7357 H           1 MOL       0.2473
     27 H12         7.8319  -13.7835  118.2892 H           1 MOL       0.2444
@<TRIPOS>BOND
     1     1     2   1
     2     2     3   1
     3     3     4   1
     4     4     5   2
     5     4     6   1
     6     6     7   2
     7     7     8   1
     8     8     9  ar
     9     8    10  ar
    10     9    14  ar
    11    10    11  ar
    12    11    12  ar
    13    12    13   1
    14    12    14  ar
    15    14    15   1
    16     1    16   1
    17     1    17   1
    18     1    18   1
    19     2    19   1
    20     2    20   1
    21     6    21   1
    22     7    22   1
    23     9    23   1
    24    10    24   1
    25    11    25   1
    26    13    26   1
    27    15    27   1
@<TRIPOS>SUBSTRUCTURE
     1  MOL      1

