@<TRIPOS>MOLECULE
4gqq_ligand_001
    27    27
SMALL
GAST_HUCK
****
This file was generated by PARSER (from files_GN.cpp)

@<TRIPOS>ATOM
      1 C5'        10.6447  -21.8788  119.1180 C.3         1 MOL      -0.0374
      2 C4'        10.4265  -21.6610  117.6047 C.3         1 MOL       0.0721
      3 O2'         9.5868  -20.5519  117.2697 O.3         1 MOL      -0.2816
      4 C3'         8.3133  -20.2865  117.6711 C.2         1 MOL       0.2442
      5 O1'         7.6817  -21.0659  118.5752 O.2         1 MOL      -0.3669
      6 C2'         7.6374  -19.1993  117.1706 C.2         1 MOL       0.0162
      7 C1'         7.6924  -18.8398  115.8749 C.2         1 MOL      -0.0475
      8 C1          6.9676  -17.7778  115.3705 C.ar        1 MOL      -0.0328
      9 C2          5.9725  -17.9951  114.3914 C.ar        1 MOL      -0.0287
     10 C6          7.2074  -16.4612  115.8266 C.ar        1 MOL      -0.0672
     11 C5          6.4920  -15.3799  115.2831 C.ar        1 MOL      -0.0342
     12 C4          5.5150  -15.5991  114.2959 C.ar        1 MOL       0.1232
     13 O4          4.8341  -14.5369  113.8046 O.3         1 MOL      -0.3320
     14 C3          5.2360  -16.9145  113.8703 C.ar        1 MOL       0.1218
     15 O3          4.2369  -17.1781  112.9930 O.3         1 MOL      -0.3356
     16 H1         11.3967  -22.6572  119.2725 H           1 MOL       0.0255
     17 H2          9.7238  -22.2115  119.5940 H           1 MOL       0.0255
     18 H3         10.9767  -20.9524  119.5892 H           1 MOL       0.0255
     19 H4         10.0050  -22.5625  117.1605 H           1 MOL       0.0607
     20 H5         11.3967  -21.4898  117.1349 H           1 MOL       0.0607
     21 H6          7.0016  -18.7362  117.7808 H           1 MOL       0.0617
     22 H7          8.1625  -19.4309  115.2203 H           1 MOL       0.0733
     23 H8          5.7666  -18.9441  114.0654 H           1 MOL       0.0541
     24 H9          7.9173  -16.2753  116.5384 H           1 MOL       0.0547
     25 H10         6.6815  -14.4327  115.6109 H           1 MOL       0.0531
     26 H11         4.8179  -14.6605  112.8272 H           1 MOL       0.2473
     27 H12         4.2402  -16.4479  112.3398 H           1 MOL       0.2444
@<TRIPOS>BOND
     1     1     2   1
     2     2     3   1
     3     3     4   1
     4     4     5   2
     5     4     6   1
     6     6     7   2
     7     7     8   1
     8     8     9  ar
     9     8    10  ar
    10     9    14  ar
    11    10    11  ar
    12    11    12  ar
    13    12    13   1
    14    12    14  ar
    15    14    15   1
    16     1    16   1
    17     1    17   1
    18     1    18   1
    19     2    19   1
    20     2    20   1
    21     6    21   1
    22     7    22   1
    23     9    23   1
    24    10    24   1
    25    11    25   1
    26    13    26   1
    27    15    27   1
@<TRIPOS>SUBSTRUCTURE
     1  MOL      1

