@<TRIPOS>MOLECULE
4tmn_ligand_063
    68    69
SMALL
GAST_HUCK
****
This file was generated by PARSER (from files_GN.cpp)

@<TRIPOS>ATOM
      1 C          53.2626   17.9054   -3.1914 C.2         1 MOL       0.3232
      2 O          54.5451   17.9629   -3.6189 O.2         1 MOL      -0.3774
      3 OA         52.8353   18.6465   -2.1326 O.3         1 MOL      -0.2506
      4 CB         53.5801   19.5984   -1.3653 C.3         1 MOL       0.1113
      5 CG         53.8929   19.0157   -0.0389 C.ar        1 MOL      -0.0130
      6 CD1        55.2211   18.6516    0.2934 C.ar        1 MOL      -0.0578
      7 CD2        52.8692   18.7902    0.9098 C.ar        1 MOL      -0.0578
      8 CE1        55.5168   18.0841    1.5458 C.ar        1 MOL      -0.0685
      9 CE2        53.1656   18.2251    2.1656 C.ar        1 MOL      -0.0685
     10 CZ         54.4896   17.8718    2.4833 C.ar        1 MOL      -0.0687
     11 N          52.3586   17.0768   -3.7515 N.am        1 MOL      -0.2403
     12 CA         52.5661   16.1457   -4.8209 C.3         1 MOL       0.1331
     13 P          51.5313   16.5551   -6.0752 P.3         1 MOL       0.0925
     14 OP1        50.1928   16.7242   -5.5703 O.co2       1 MOL      -0.6054
     15 OP2        51.9377   17.8174   -6.6398 O.co2       1 MOL      -0.6054
     16 CB         52.3733   14.6897   -4.2643 C.3         1 MOL       0.0219
     17 CG         53.6596   13.9503   -4.1500 C.ar        1 MOL      -0.0392
     18 CD1        54.1524   13.2077   -5.2513 C.ar        1 MOL      -0.0602
     19 CD2        54.4341   14.0123   -2.9690 C.ar        1 MOL      -0.0602
     20 CE1        55.3781   12.5234   -5.1623 C.ar        1 MOL      -0.0686
     21 CE2        55.6654   13.3351   -2.8850 C.ar        1 MOL      -0.0686
     22 CZ         56.1353   12.5880   -3.9798 C.ar        1 MOL      -0.0687
     23 N          51.4940   15.4724   -7.1382 N.am        1 MOL      -0.2733
     24 CA         51.0174   15.5573   -8.4589 C.3         1 MOL       0.1230
     25 C          49.7425   16.2538   -8.6424 C.2         1 MOL       0.1994
     26 O          48.8429   16.0828   -7.8259 O.2         1 MOL      -0.3949
     27 CB         50.9962   14.1296   -9.1068 C.3         1 MOL      -0.0136
     28 CG         49.9049   13.0622   -8.7263 C.3         1 MOL      -0.0429
     29 CD1        49.5367   13.0205   -7.2156 C.3         1 MOL      -0.0625
     30 CD2        48.6426   13.0998   -9.6364 C.3         1 MOL      -0.0625
     31 N          49.5480   17.0346   -9.6990 N.am        1 MOL      -0.2701
     32 CA         48.3490   17.7751  -10.0044 C.3         1 MOL       0.0916
     33 C          48.4802   18.4787  -11.2956 C.2         1 MOL       0.0598
     34 O          49.6904   18.8734  -11.7563 O.co2       1 MOL      -0.5666
     35 CB         47.9866   18.7792   -8.8763 C.3         1 MOL      -0.0300
     36 OXT        47.3918   19.0814  -11.8248 O.co2       1 MOL      -0.5666
     37 H1         52.9761   20.4980   -1.2413 H           1 MOL       0.0776
     38 H2         54.4886   19.8945   -1.8953 H           1 MOL       0.0776
     39 H3         55.9794   18.7884   -0.3789 H           1 MOL       0.0557
     40 H4         51.9001   19.0402    0.6945 H           1 MOL       0.0557
     41 H5         56.4798   17.8212    1.7713 H           1 MOL       0.0599
     42 H6         52.4203   18.0716    2.8474 H           1 MOL       0.0599
     43 H7         54.7062   17.4579    3.3929 H           1 MOL       0.0559
     44 H8         51.4733   17.0829   -3.3578 H           1 MOL       0.1888
     45 H9         53.5774   16.2500   -5.2232 H           1 MOL       0.0803
     46 H10        51.7089   14.0955   -4.8942 H           1 MOL       0.0465
     47 H11        51.8778   14.7116   -3.2878 H           1 MOL       0.0465
     48 H12        53.6227   13.1632   -6.1259 H           1 MOL       0.0557
     49 H13        54.1109   14.5570   -2.1654 H           1 MOL       0.0557
     50 H14        55.7213   11.9848   -5.9614 H           1 MOL       0.0599
     51 H15        56.2224   13.3910   -2.0314 H           1 MOL       0.0599
     52 H16        57.0298   12.0959   -3.9176 H           1 MOL       0.0559
     53 H17        51.9200   14.6756   -6.9095 H           1 MOL       0.1669
     54 H18        51.7900   16.1180   -9.0017 H           1 MOL       0.0753
     55 H19        51.9665   13.6716   -8.8941 H           1 MOL       0.0311
     56 H20        50.9675   14.2593  -10.1922 H           1 MOL       0.0311
     57 H21        50.3600   12.0894   -8.9344 H           1 MOL       0.0298
     58 H22        48.8549   12.1877   -7.0164 H           1 MOL       0.0232
     59 H23        49.0422   13.9433   -6.8962 H           1 MOL       0.0232
     60 H24        50.4396   12.8789   -6.6167 H           1 MOL       0.0232
     61 H25        48.9379   13.0285  -10.6861 H           1 MOL       0.0232
     62 H26        48.0620   14.0137   -9.5021 H           1 MOL       0.0232
     63 H27        47.9905   12.2529   -9.4114 H           1 MOL       0.0232
     64 H28        50.2744   17.0888  -10.3467 H           1 MOL       0.1875
     65 H29        47.5259   17.0595  -10.1117 H           1 MOL       0.0723
     66 H30        47.0748   19.3248   -9.1288 H           1 MOL       0.0270
     67 H31        48.7977   19.4938   -8.7148 H           1 MOL       0.0270
     68 H32        47.8032   18.2458   -7.9449 H           1 MOL       0.0270
@<TRIPOS>BOND
     1    23    24   1
     2    24    27   1
     3    24    25   1
     4    25    26   2
     5    27    28   1
     6    28    29   1
     7    28    30   1
     8    31    32   1
     9    32    35   1
    10    32    33   1
    11    33    34  ar
    12    33    36  ar
    13    25    31  am
    14     1     2   2
    15     1     3   1
    16    11     1  am
    17     3     4   1
    18     4     5   1
    19     5     6  ar
    20     5     7  ar
    21     6     8  ar
    22     7     9  ar
    23     8    10  ar
    24     9    10  ar
    25    12    11   1
    26    13    12   1
    27    12    16   1
    28    13    14  ar
    29    13    15  ar
    30    13    23  am
    31    16    17   1
    32    17    18  ar
    33    17    19  ar
    34    18    20  ar
    35    19    21  ar
    36    20    22  ar
    37    21    22  ar
    38     4    37   1
    39     4    38   1
    40     6    39   1
    41     7    40   1
    42     8    41   1
    43     9    42   1
    44    10    43   1
    45    11    44   1
    46    12    45   1
    47    16    46   1
    48    16    47   1
    49    18    48   1
    50    19    49   1
    51    20    50   1
    52    21    51   1
    53    22    52   1
    54    23    53   1
    55    24    54   1
    56    27    55   1
    57    27    56   1
    58    28    57   1
    59    29    58   1
    60    29    59   1
    61    29    60   1
    62    30    61   1
    63    30    62   1
    64    30    63   1
    65    31    64   1
    66    32    65   1
    67    35    66   1
    68    35    67   1
    69    35    68   1
@<TRIPOS>SUBSTRUCTURE
     1  MOL      1

