@<TRIPOS>MOLECULE
4tmn_ligand_001
    68    69
SMALL
GAST_HUCK
****
This file was generated by PARSER (from files_GN.cpp)

@<TRIPOS>ATOM
      1 C          49.3118   16.2673   -6.5355 C.2         1 MOL       0.3232
      2 O          49.9281   15.3993   -7.3733 O.2         1 MOL      -0.3774
      3 OA         48.0262   16.0740   -6.1371 O.3         1 MOL      -0.2506
      4 CB         47.0245   15.0919   -6.4542 C.3         1 MOL       0.1113
      5 CG         47.4020   14.1296   -7.5188 C.ar        1 MOL      -0.0130
      6 CD1        47.1377   14.4111   -8.8796 C.ar        1 MOL      -0.0578
      7 CD2        48.1091   12.9432   -7.1983 C.ar        1 MOL      -0.0578
      8 CE1        47.5800   13.5439   -9.8952 C.ar        1 MOL      -0.0685
      9 CE2        48.5533   12.0759   -8.2133 C.ar        1 MOL      -0.0685
     10 CZ         48.2766   12.3653   -9.5618 C.ar        1 MOL      -0.0687
     11 N          49.9456   17.3640   -6.0722 N.am        1 MOL      -0.2403
     12 CA         51.2920   17.7667   -6.3769 C.3         1 MOL       0.1331
     13 P          51.7070   19.0536   -5.3825 P.3         1 MOL       0.0925
     14 OP1        52.8547   19.7641   -5.8824 O.co2       1 MOL      -0.6054
     15 OP2        50.6033   19.9778   -5.3809 O.co2       1 MOL      -0.6054
     16 CB         51.5608   18.0455   -7.8953 C.3         1 MOL       0.0219
     17 CG         50.9815   19.2853   -8.4996 C.ar        1 MOL      -0.0392
     18 CD1        49.5825   19.4858   -8.5512 C.ar        1 MOL      -0.0602
     19 CD2        51.8270   20.2641   -9.0721 C.ar        1 MOL      -0.0602
     20 CE1        49.0439   20.6340   -9.1570 C.ar        1 MOL      -0.0686
     21 CE2        51.2912   21.4144   -9.6756 C.ar        1 MOL      -0.0686
     22 CZ         49.8993   21.6027   -9.7181 C.ar        1 MOL      -0.0687
     23 N          51.8650   18.5702   -3.9570 N.am        1 MOL      -0.2733
     24 CA         53.0592   18.4786   -3.2118 C.3         1 MOL       0.1230
     25 C          53.5901   17.1145   -3.2907 C.2         1 MOL       0.1994
     26 O          54.8003   16.9605   -3.4301 O.2         1 MOL      -0.3949
     27 CB         52.7619   18.9393   -1.7433 C.3         1 MOL      -0.0136
     28 CG         53.9346   19.5467   -0.8968 C.3         1 MOL      -0.0429
     29 CD1        54.9786   18.4994   -0.4308 C.3         1 MOL      -0.0625
     30 CD2        54.6249   20.7692   -1.5702 C.3         1 MOL      -0.0625
     31 N          52.7797   16.0572   -3.2618 N.am        1 MOL      -0.2701
     32 CA         53.1620   14.6777   -3.3689 C.3         1 MOL       0.0916
     33 C          53.0568   14.2376   -4.7784 C.2         1 MOL       0.0598
     34 O          54.1600   13.8676   -5.4639 O.co2       1 MOL      -0.5666
     35 CB         52.2818   13.8093   -2.4350 C.3         1 MOL      -0.0300
     36 OXT        51.8676   14.2172   -5.4245 O.co2       1 MOL      -0.5666
     37 H1         46.1241   15.6297   -6.7529 H           1 MOL       0.0776
     38 H2         46.7701   14.5556   -5.5375 H           1 MOL       0.0776
     39 H3         46.6411   15.2672   -9.1451 H           1 MOL       0.0557
     40 H4         48.3457   12.7338   -6.2258 H           1 MOL       0.0557
     41 H5         47.3926   13.7658  -10.8762 H           1 MOL       0.0599
     42 H6         49.0839   11.2338   -7.9709 H           1 MOL       0.0599
     43 H7         48.6033   11.7384  -10.3010 H           1 MOL       0.0559
     44 H8         49.4406   17.9284   -5.4634 H           1 MOL       0.1888
     45 H9         51.9486   16.9384   -6.0892 H           1 MOL       0.0803
     46 H10        51.2162   17.1986   -8.4903 H           1 MOL       0.0465
     47 H11        52.6495   18.0495   -8.0148 H           1 MOL       0.0465
     48 H12        48.9435   18.7901   -8.1632 H           1 MOL       0.0557
     49 H13        52.8398   20.1415   -9.0678 H           1 MOL       0.0557
     50 H14        48.0335   20.7673   -9.1980 H           1 MOL       0.0599
     51 H15        51.9119   22.1122  -10.0911 H           1 MOL       0.0599
     52 H16        49.5112   22.4388  -10.1627 H           1 MOL       0.0559
     53 H17        51.1448   18.0785   -3.6190 H           1 MOL       0.1669
     54 H18        53.8011   19.1768   -3.6127 H           1 MOL       0.0753
     55 H19        52.3232   18.1068   -1.1870 H           1 MOL       0.0311
     56 H20        51.9904   19.7197   -1.7746 H           1 MOL       0.0311
     57 H21        53.4707   19.9345    0.0182 H           1 MOL       0.0298
     58 H22        55.6651   18.9474    0.2949 H           1 MOL       0.0232
     59 H23        55.5686   18.1303   -1.2746 H           1 MOL       0.0232
     60 H24        54.4747   17.6552    0.0491 H           1 MOL       0.0232
     61 H25        53.8766   21.4827   -1.9323 H           1 MOL       0.0232
     62 H26        55.2514   20.4514   -2.4111 H           1 MOL       0.0232
     63 H27        55.2668   21.2880   -0.8472 H           1 MOL       0.0232
     64 H28        51.8274   16.2370   -3.2200 H           1 MOL       0.1875
     65 H29        54.1987   14.5471   -3.0393 H           1 MOL       0.0723
     66 H30        52.5554   12.7550   -2.5265 H           1 MOL       0.0270
     67 H31        51.2211   13.9201   -2.6807 H           1 MOL       0.0270
     68 H32        52.4316   14.1120   -1.3953 H           1 MOL       0.0270
@<TRIPOS>BOND
     1    23    24   1
     2    24    27   1
     3    24    25   1
     4    25    26   2
     5    27    28   1
     6    28    29   1
     7    28    30   1
     8    31    32   1
     9    32    35   1
    10    32    33   1
    11    33    34  ar
    12    33    36  ar
    13    25    31  am
    14     1     2   2
    15     1     3   1
    16    11     1  am
    17     3     4   1
    18     4     5   1
    19     5     6  ar
    20     5     7  ar
    21     6     8  ar
    22     7     9  ar
    23     8    10  ar
    24     9    10  ar
    25    12    11   1
    26    13    12   1
    27    12    16   1
    28    13    14  ar
    29    13    15  ar
    30    13    23  am
    31    16    17   1
    32    17    18  ar
    33    17    19  ar
    34    18    20  ar
    35    19    21  ar
    36    20    22  ar
    37    21    22  ar
    38     4    37   1
    39     4    38   1
    40     6    39   1
    41     7    40   1
    42     8    41   1
    43     9    42   1
    44    10    43   1
    45    11    44   1
    46    12    45   1
    47    16    46   1
    48    16    47   1
    49    18    48   1
    50    19    49   1
    51    20    50   1
    52    21    51   1
    53    22    52   1
    54    23    53   1
    55    24    54   1
    56    27    55   1
    57    27    56   1
    58    28    57   1
    59    29    58   1
    60    29    59   1
    61    29    60   1
    62    30    61   1
    63    30    62   1
    64    30    63   1
    65    31    64   1
    66    32    65   1
    67    35    66   1
    68    35    67   1
    69    35    68   1
@<TRIPOS>SUBSTRUCTURE
     1  MOL      1

