@<TRIPOS>MOLECULE
4tmn_ligand_045
    68    69
SMALL
GAST_HUCK
****
This file was generated by PARSER (from files_GN.cpp)

@<TRIPOS>ATOM
      1 C          51.2064   16.2489   -6.6035 C.2         1 MOL       0.3232
      2 O          51.5299   16.6295   -7.8601 O.2         1 MOL      -0.3774
      3 OA         50.3070   15.2472   -6.4084 O.3         1 MOL      -0.2506
      4 CB         49.5597   14.5392   -7.4092 C.3         1 MOL       0.1113
      5 CG         48.3709   15.3218   -7.8375 C.ar        1 MOL      -0.0130
      6 CD1        48.0732   15.5189   -9.2078 C.ar        1 MOL      -0.0578
      7 CD2        47.4949   15.8696   -6.8701 C.ar        1 MOL      -0.0578
      8 CE1        46.9193   16.2226   -9.5979 C.ar        1 MOL      -0.0685
      9 CE2        46.3412   16.5743   -7.2599 C.ar        1 MOL      -0.0685
     10 CZ         46.0476   16.7436   -8.6245 C.ar        1 MOL      -0.0687
     11 N          51.6959   16.8748   -5.5091 N.am        1 MOL      -0.2403
     12 CA         52.5419   18.0436   -5.4870 C.3         1 MOL       0.1331
     13 P          53.3706   18.0833   -4.0275 P.3         1 MOL       0.0925
     14 OP1        54.7391   17.6630   -4.2339 O.co2       1 MOL      -0.6054
     15 OP2        53.5525   19.4344   -3.5557 O.co2       1 MOL      -0.6054
     16 CB         51.7141   19.3418   -5.7617 C.3         1 MOL       0.0219
     17 CG         50.9872   19.3095   -7.0633 C.ar        1 MOL      -0.0392
     18 CD1        51.6325   19.6964   -8.2635 C.ar        1 MOL      -0.0602
     19 CD2        49.6543   18.8359   -7.1376 C.ar        1 MOL      -0.0602
     20 CE1        50.9780   19.5804   -9.5049 C.ar        1 MOL      -0.0686
     21 CE2        48.9976   18.7305   -8.3764 C.ar        1 MOL      -0.0686
     22 CZ         49.6640   19.0847   -9.5628 C.ar        1 MOL      -0.0687
     23 N          52.7359   17.2830   -2.8991 N.am        1 MOL      -0.2733
     24 CA         53.3870   16.7507   -1.7708 C.3         1 MOL       0.1230
     25 C          53.4802   15.2928   -1.9199 C.2         1 MOL       0.1994
     26 O          53.1358   14.5385   -1.0182 O.2         1 MOL      -0.3949
     27 CB         52.6765   17.2015   -0.4470 C.3         1 MOL      -0.0136
     28 CG         52.4716   18.7241   -0.1459 C.3         1 MOL      -0.0429
     29 CD1        53.7767   19.5554   -0.2747 C.3         1 MOL      -0.0625
     30 CD2        51.2805   19.3463   -0.9262 C.3         1 MOL      -0.0625
     31 N          53.9750   14.7752   -3.0432 N.am        1 MOL      -0.2701
     32 CA         54.1462   13.3905   -3.3662 C.3         1 MOL       0.0916
     33 C          54.9674   12.7009   -2.3473 C.2         1 MOL       0.0598
     34 O          54.4190   11.7720   -1.5357 O.co2       1 MOL      -0.5666
     35 CB         54.7997   13.2665   -4.7658 C.3         1 MOL      -0.0300
     36 OXT        56.2746   13.0040   -2.1862 O.co2       1 MOL      -0.5666
     37 H1         49.2179   13.6005   -6.9700 H           1 MOL       0.0776
     38 H2         50.2092   14.2799   -8.2500 H           1 MOL       0.0776
     39 H3         48.6945   15.1467   -9.9288 H           1 MOL       0.0557
     40 H4         47.6816   15.7436   -5.8714 H           1 MOL       0.0557
     41 H5         46.7122   16.3533  -10.5902 H           1 MOL       0.0599
     42 H6         45.7070   16.9531   -6.5527 H           1 MOL       0.0599
     43 H7         45.2077   17.2511   -8.9098 H           1 MOL       0.0559
     44 H8         51.3436   16.5650   -4.6596 H           1 MOL       0.1888
     45 H9         53.2988   17.9689   -6.2723 H           1 MOL       0.0803
     46 H10        52.3760   20.2148   -5.7734 H           1 MOL       0.0465
     47 H11        51.0094   19.5002   -4.9412 H           1 MOL       0.0465
     48 H12        52.5910   20.0534   -8.2423 H           1 MOL       0.0557
     49 H13        49.1618   18.5415   -6.2911 H           1 MOL       0.0557
     50 H14        51.4554   19.8590  -10.3649 H           1 MOL       0.0599
     51 H15        48.0361   18.3896   -8.4150 H           1 MOL       0.0599
     52 H16        49.1866   19.0003  -10.4630 H           1 MOL       0.0559
     53 H17        51.8165   17.1218   -2.9684 H           1 MOL       0.1669
     54 H18        54.4165   17.1165   -1.7040 H           1 MOL       0.0753
     55 H19        53.2638   16.7990    0.3837 H           1 MOL       0.0311
     56 H20        51.6998   16.7137   -0.3877 H           1 MOL       0.0311
     57 H21        52.1820   18.7913    0.9111 H           1 MOL       0.0298
     58 H22        53.5927   20.5982   -0.0081 H           1 MOL       0.0232
     59 H23        54.1666   19.5293   -1.2917 H           1 MOL       0.0232
     60 H24        54.5375   19.1629    0.4059 H           1 MOL       0.0232
     61 H25        50.3658   18.7863   -0.7196 H           1 MOL       0.0232
     62 H26        51.4493   19.3468   -2.0011 H           1 MOL       0.0232
     63 H27        51.1159   20.3780   -0.6106 H           1 MOL       0.0232
     64 H28        54.1908   15.3999   -3.7487 H           1 MOL       0.1875
     65 H29        53.1614   12.9159   -3.4234 H           1 MOL       0.0723
     66 H30        54.9188   12.2150   -5.0418 H           1 MOL       0.0270
     67 H31        55.7823   13.7470   -4.7799 H           1 MOL       0.0270
     68 H32        54.1684   13.7482   -5.5184 H           1 MOL       0.0270
@<TRIPOS>BOND
     1    23    24   1
     2    24    27   1
     3    24    25   1
     4    25    26   2
     5    27    28   1
     6    28    29   1
     7    28    30   1
     8    31    32   1
     9    32    35   1
    10    32    33   1
    11    33    34  ar
    12    33    36  ar
    13    25    31  am
    14     1     2   2
    15     1     3   1
    16    11     1  am
    17     3     4   1
    18     4     5   1
    19     5     6  ar
    20     5     7  ar
    21     6     8  ar
    22     7     9  ar
    23     8    10  ar
    24     9    10  ar
    25    12    11   1
    26    13    12   1
    27    12    16   1
    28    13    14  ar
    29    13    15  ar
    30    13    23  am
    31    16    17   1
    32    17    18  ar
    33    17    19  ar
    34    18    20  ar
    35    19    21  ar
    36    20    22  ar
    37    21    22  ar
    38     4    37   1
    39     4    38   1
    40     6    39   1
    41     7    40   1
    42     8    41   1
    43     9    42   1
    44    10    43   1
    45    11    44   1
    46    12    45   1
    47    16    46   1
    48    16    47   1
    49    18    48   1
    50    19    49   1
    51    20    50   1
    52    21    51   1
    53    22    52   1
    54    23    53   1
    55    24    54   1
    56    27    55   1
    57    27    56   1
    58    28    57   1
    59    29    58   1
    60    29    59   1
    61    29    60   1
    62    30    61   1
    63    30    62   1
    64    30    63   1
    65    31    64   1
    66    32    65   1
    67    35    66   1
    68    35    67   1
    69    35    68   1
@<TRIPOS>SUBSTRUCTURE
     1  MOL      1

