@<TRIPOS>MOLECULE
4tmn_ligand_018
    68    69
SMALL
GAST_HUCK
****
This file was generated by PARSER (from files_GN.cpp)

@<TRIPOS>ATOM
      1 C          47.7394   20.5127  -10.9790 C.2         1 MOL       0.3232
      2 O          48.8134   20.5205  -11.8123 O.2         1 MOL      -0.3774
      3 OA         46.5388   20.9908  -11.3954 O.3         1 MOL      -0.2506
      4 CB         46.2547   21.5351  -12.6854 C.3         1 MOL       0.1113
      5 CG         46.5938   20.5589  -13.7485 C.ar        1 MOL      -0.0130
      6 CD1        45.6440   19.5975  -14.1730 C.ar        1 MOL      -0.0578
      7 CD2        47.8909   20.5296  -14.3174 C.ar        1 MOL      -0.0578
      8 CE1        45.9697   18.6623  -15.1783 C.ar        1 MOL      -0.0685
      9 CE2        48.2212   19.5846  -15.3087 C.ar        1 MOL      -0.0685
     10 CZ         47.2561   18.6620  -15.7512 C.ar        1 MOL      -0.0687
     11 N          47.7847   19.9400   -9.7545 N.am        1 MOL      -0.2403
     12 CA         48.8350   19.1111   -9.2268 C.3         1 MOL       0.1331
     13 P          50.1873   19.9844   -8.7533 P.3         1 MOL       0.0925
     14 OP1        50.8349   20.5609   -9.9077 O.co2       1 MOL      -0.6054
     15 OP2        49.7909   21.1103   -7.9437 O.co2       1 MOL      -0.6054
     16 CB         49.1496   17.8745  -10.1392 C.3         1 MOL       0.0219
     17 CG         47.9975   17.2702  -10.8711 C.ar        1 MOL      -0.0392
     18 CD1        46.7776   16.9770  -10.2075 C.ar        1 MOL      -0.0602
     19 CD2        48.1193   16.9083  -12.2373 C.ar        1 MOL      -0.0602
     20 CE1        45.7064   16.3760  -10.8960 C.ar        1 MOL      -0.0686
     21 CE2        47.0593   16.2783  -12.9160 C.ar        1 MOL      -0.0686
     22 CZ         45.8510   16.0186  -12.2480 C.ar        1 MOL      -0.0687
     23 N          51.2653   19.1878   -8.0396 N.am        1 MOL      -0.2733
     24 CA         51.1218   18.4086   -6.8671 C.3         1 MOL       0.1230
     25 C          52.0221   18.8425   -5.7962 C.2         1 MOL       0.1994
     26 O          52.8863   19.6868   -6.0125 O.2         1 MOL      -0.3949
     27 CB         51.3600   16.8957   -7.2437 C.3         1 MOL      -0.0136
     28 CG         50.4063   15.8189   -6.6221 C.3         1 MOL      -0.0429
     29 CD1        48.9168   16.2574   -6.4671 C.3         1 MOL      -0.0625
     30 CD2        50.4777   14.5015   -7.4533 C.3         1 MOL      -0.0625
     31 N          51.8922   18.2929   -4.5869 N.am        1 MOL      -0.2701
     32 CA         52.6701   18.5724   -3.4141 C.3         1 MOL       0.0916
     33 C          54.0768   18.1306   -3.5766 C.2         1 MOL       0.0598
     34 O          54.5804   17.0208   -2.9873 O.co2       1 MOL      -0.5666
     35 CB         51.9795   17.9366   -2.1821 C.3         1 MOL      -0.0300
     36 OXT        54.9379   18.8773   -4.3006 O.co2       1 MOL      -0.5666
     37 H1         46.8094   22.4689  -12.8005 H           1 MOL       0.0776
     38 H2         45.1930   21.7789  -12.7353 H           1 MOL       0.0776
     39 H3         44.7102   19.5755  -13.7620 H           1 MOL       0.0557
     40 H4         48.5999   21.2046  -14.0263 H           1 MOL       0.0557
     41 H5         45.2743   17.9792  -15.4876 H           1 MOL       0.0599
     42 H6         49.1578   19.5770  -15.7200 H           1 MOL       0.0599
     43 H7         47.4871   17.9923  -16.4883 H           1 MOL       0.0559
     44 H8         46.9647   19.9817   -9.2279 H           1 MOL       0.1888
     45 H9         48.4266   18.7076   -8.2953 H           1 MOL       0.0803
     46 H10        49.5455   17.0732   -9.5191 H           1 MOL       0.0465
     47 H11        49.9432   18.1378  -10.8506 H           1 MOL       0.0465
     48 H12        46.6601   17.2034   -9.2193 H           1 MOL       0.0557
     49 H13        48.9898   17.0787  -12.7438 H           1 MOL       0.0557
     50 H14        44.8301   16.1816  -10.4075 H           1 MOL       0.0599
     51 H15        47.1739   15.9973  -13.8915 H           1 MOL       0.0599
     52 H16        45.0825   15.5589  -12.7416 H           1 MOL       0.0559
     53 H17        52.0811   19.0959   -8.4942 H           1 MOL       0.1669
     54 H18        50.1109   18.5425   -6.4669 H           1 MOL       0.0753
     55 H19        52.3832   16.6199   -6.9705 H           1 MOL       0.0311
     56 H20        51.3350   16.7806   -8.3277 H           1 MOL       0.0311
     57 H21        50.7929   15.5924   -5.6212 H           1 MOL       0.0298
     58 H22        48.2666   15.3901   -6.2951 H           1 MOL       0.0232
     59 H23        48.5792   16.7736   -7.3742 H           1 MOL       0.0232
     60 H24        48.8036   16.9221   -5.6069 H           1 MOL       0.0232
     61 H25        51.5150   14.1661   -7.5609 H           1 MOL       0.0232
     62 H26        50.0519   14.6562   -8.4493 H           1 MOL       0.0232
     63 H27        49.9144   13.7027   -6.9579 H           1 MOL       0.0232
     64 H28        51.1777   17.6441   -4.4746 H           1 MOL       0.1875
     65 H29        52.6798   19.6551   -3.2415 H           1 MOL       0.0723
     66 H30        52.5382   18.1719   -1.2697 H           1 MOL       0.0270
     67 H31        51.9209   16.8484   -2.2866 H           1 MOL       0.0270
     68 H32        50.9656   18.3327   -2.0714 H           1 MOL       0.0270
@<TRIPOS>BOND
     1    23    24   1
     2    24    27   1
     3    24    25   1
     4    25    26   2
     5    27    28   1
     6    28    29   1
     7    28    30   1
     8    31    32   1
     9    32    35   1
    10    32    33   1
    11    33    34  ar
    12    33    36  ar
    13    25    31  am
    14     1     2   2
    15     1     3   1
    16    11     1  am
    17     3     4   1
    18     4     5   1
    19     5     6  ar
    20     5     7  ar
    21     6     8  ar
    22     7     9  ar
    23     8    10  ar
    24     9    10  ar
    25    12    11   1
    26    13    12   1
    27    12    16   1
    28    13    14  ar
    29    13    15  ar
    30    13    23  am
    31    16    17   1
    32    17    18  ar
    33    17    19  ar
    34    18    20  ar
    35    19    21  ar
    36    20    22  ar
    37    21    22  ar
    38     4    37   1
    39     4    38   1
    40     6    39   1
    41     7    40   1
    42     8    41   1
    43     9    42   1
    44    10    43   1
    45    11    44   1
    46    12    45   1
    47    16    46   1
    48    16    47   1
    49    18    48   1
    50    19    49   1
    51    20    50   1
    52    21    51   1
    53    22    52   1
    54    23    53   1
    55    24    54   1
    56    27    55   1
    57    27    56   1
    58    28    57   1
    59    29    58   1
    60    29    59   1
    61    29    60   1
    62    30    61   1
    63    30    62   1
    64    30    63   1
    65    31    64   1
    66    32    65   1
    67    35    66   1
    68    35    67   1
    69    35    68   1
@<TRIPOS>SUBSTRUCTURE
     1  MOL      1

