@<TRIPOS>MOLECULE
4tmn_ligand_046
    68    69
SMALL
GAST_HUCK
****
This file was generated by PARSER (from files_GN.cpp)

@<TRIPOS>ATOM
      1 C          51.1761   20.2547   -7.7005 C.2         1 MOL       0.3232
      2 O          49.9537   20.4504   -7.1473 O.2         1 MOL      -0.3774
      3 OA         52.2798   20.0520   -6.9236 O.3         1 MOL      -0.2506
      4 CB         52.3071   19.9548   -5.4874 C.3         1 MOL       0.1113
      5 CG         52.7146   18.5925   -5.0478 C.ar        1 MOL      -0.0130
      6 CD1        53.6754   18.4146   -4.0222 C.ar        1 MOL      -0.0578
      7 CD2        52.0833   17.4506   -5.5873 C.ar        1 MOL      -0.0578
      8 CE1        53.9917   17.1233   -3.5538 C.ar        1 MOL      -0.0685
      9 CE2        52.4196   16.1603   -5.1384 C.ar        1 MOL      -0.0685
     10 CZ         53.3720   15.9962   -4.1219 C.ar        1 MOL      -0.0687
     11 N          51.3040   20.1438   -9.0457 N.am        1 MOL      -0.2403
     12 CA         50.2028   20.0194   -9.9753 C.3         1 MOL       0.1331
     13 P          49.5357   18.4828   -9.9163 P.3         1 MOL       0.0925
     14 OP1        50.4535   17.4913  -10.4248 O.co2       1 MOL      -0.6054
     15 OP2        49.2080   18.1240   -8.5639 O.co2       1 MOL      -0.6054
     16 CB         50.6875   20.3821  -11.4178 C.3         1 MOL       0.0219
     17 CG         50.8093   21.8463  -11.6528 C.ar        1 MOL      -0.0392
     18 CD1        49.6581   22.6016  -11.9761 C.ar        1 MOL      -0.0602
     19 CD2        52.0615   22.4997  -11.6021 C.ar        1 MOL      -0.0602
     20 CE1        49.7567   23.9824  -12.2391 C.ar        1 MOL      -0.0686
     21 CE2        52.1570   23.8854  -11.8417 C.ar        1 MOL      -0.0686
     22 CZ         51.0026   24.6243  -12.1532 C.ar        1 MOL      -0.0687
     23 N          48.2197   18.4879  -10.6746 N.am        1 MOL      -0.2733
     24 CA         47.6118   17.3961  -11.3255 C.3         1 MOL       0.1230
     25 C          46.7157   17.9016  -12.3771 C.2         1 MOL       0.1994
     26 O          45.6054   17.4224  -12.5198 O.2         1 MOL      -0.3949
     27 CB         46.9749   16.3825  -10.3004 C.3         1 MOL      -0.0136
     28 CG         45.7964   16.7730   -9.3358 C.3         1 MOL      -0.0429
     29 CD1        45.6291   18.2828   -9.0067 C.3         1 MOL      -0.0625
     30 CD2        44.4241   16.1629   -9.7557 C.3         1 MOL      -0.0625
     31 N          47.1650   18.8171  -13.2386 N.am        1 MOL      -0.2701
     32 CA         46.4802   19.4524  -14.3261 C.3         1 MOL       0.0916
     33 C          45.3425   20.2881  -13.8687 C.2         1 MOL       0.0598
     34 O          45.3510   21.6265  -14.0567 O.co2       1 MOL      -0.5666
     35 CB         46.0731   18.4612  -15.4497 C.3         1 MOL      -0.0300
     36 OXT        44.2538   19.7355  -13.2917 O.co2       1 MOL      -0.5666
     37 H1         51.3269   20.1572   -5.0548 H           1 MOL       0.0776
     38 H2         52.9919   20.7150   -5.1166 H           1 MOL       0.0776
     39 H3         54.1326   19.2192   -3.5877 H           1 MOL       0.0557
     40 H4         51.3703   17.5484   -6.3140 H           1 MOL       0.0557
     41 H5         54.6637   17.0050   -2.7902 H           1 MOL       0.0599
     42 H6         51.9609   15.3394   -5.5453 H           1 MOL       0.0599
     43 H7         53.6093   15.0577   -3.7835 H           1 MOL       0.0559
     44 H8         52.2030   20.0305   -9.3931 H           1 MOL       0.1888
     45 H9         49.4108   20.7182   -9.6930 H           1 MOL       0.0803
     46 H10        49.9993   19.9908  -12.1715 H           1 MOL       0.0465
     47 H11        51.6435   19.8935  -11.6039 H           1 MOL       0.0465
     48 H12        48.7404   22.1522  -12.0376 H           1 MOL       0.0557
     49 H13        52.9132   21.9745  -11.3873 H           1 MOL       0.0557
     50 H14        48.9182   24.5135  -12.4857 H           1 MOL       0.0599
     51 H15        53.0637   24.3536  -11.7884 H           1 MOL       0.0599
     52 H16        51.0698   25.6312  -12.3178 H           1 MOL       0.0559
     53 H17        47.6593   19.2055  -10.4841 H           1 MOL       0.1669
     54 H18        48.3847   16.8468  -11.8744 H           1 MOL       0.0753
     55 H19        47.8089   16.0435   -9.6714 H           1 MOL       0.0311
     56 H20        46.6928   15.4882  -10.8736 H           1 MOL       0.0311
     57 H21        46.0199   16.2951   -8.3732 H           1 MOL       0.0298
     58 H22        44.8161   18.4283   -8.2993 H           1 MOL       0.0232
     59 H23        45.4107   18.8559   -9.9101 H           1 MOL       0.0232
     60 H24        46.5347   18.6758   -8.5446 H           1 MOL       0.0232
     61 H25        44.5186   15.0876   -9.9098 H           1 MOL       0.0232
     62 H26        44.0584   16.6194  -10.6730 H           1 MOL       0.0232
     63 H27        43.6872   16.3223   -8.9724 H           1 MOL       0.0232
     64 H28        48.0827   19.1095  -13.1036 H           1 MOL       0.1875
     65 H29        47.2131   20.1335  -14.7682 H           1 MOL       0.0723
     66 H30        45.7024   19.0077  -16.3175 H           1 MOL       0.0270
     67 H31        45.2961   17.7714  -15.1142 H           1 MOL       0.0270
     68 H32        46.9471   17.8805  -15.7538 H           1 MOL       0.0270
@<TRIPOS>BOND
     1    23    24   1
     2    24    27   1
     3    24    25   1
     4    25    26   2
     5    27    28   1
     6    28    29   1
     7    28    30   1
     8    31    32   1
     9    32    35   1
    10    32    33   1
    11    33    34  ar
    12    33    36  ar
    13    25    31  am
    14     1     2   2
    15     1     3   1
    16    11     1  am
    17     3     4   1
    18     4     5   1
    19     5     6  ar
    20     5     7  ar
    21     6     8  ar
    22     7     9  ar
    23     8    10  ar
    24     9    10  ar
    25    12    11   1
    26    13    12   1
    27    12    16   1
    28    13    14  ar
    29    13    15  ar
    30    13    23  am
    31    16    17   1
    32    17    18  ar
    33    17    19  ar
    34    18    20  ar
    35    19    21  ar
    36    20    22  ar
    37    21    22  ar
    38     4    37   1
    39     4    38   1
    40     6    39   1
    41     7    40   1
    42     8    41   1
    43     9    42   1
    44    10    43   1
    45    11    44   1
    46    12    45   1
    47    16    46   1
    48    16    47   1
    49    18    48   1
    50    19    49   1
    51    20    50   1
    52    21    51   1
    53    22    52   1
    54    23    53   1
    55    24    54   1
    56    27    55   1
    57    27    56   1
    58    28    57   1
    59    29    58   1
    60    29    59   1
    61    29    60   1
    62    30    61   1
    63    30    62   1
    64    30    63   1
    65    31    64   1
    66    32    65   1
    67    35    66   1
    68    35    67   1
    69    35    68   1
@<TRIPOS>SUBSTRUCTURE
     1  MOL      1

