@<TRIPOS>MOLECULE
4tmn_ligand_033
    68    69
SMALL
GAST_HUCK
****
This file was generated by PARSER (from files_GN.cpp)

@<TRIPOS>ATOM
      1 C          53.1721   18.9801   -3.4030 C.2         1 MOL       0.3232
      2 O          54.5049   18.9495   -3.6459 O.2         1 MOL      -0.3774
      3 OA         52.6717   19.5751   -2.2901 O.3         1 MOL      -0.2506
      4 CB         53.3789   20.3398   -1.3058 C.3         1 MOL       0.1113
      5 CG         53.7281   19.4752   -0.1534 C.ar        1 MOL      -0.0130
      6 CD1        55.0660   19.0809    0.0835 C.ar        1 MOL      -0.0578
      7 CD2        52.7177   19.0174    0.7263 C.ar        1 MOL      -0.0578
      8 CE1        55.3886   18.2561    1.1777 C.ar        1 MOL      -0.0685
      9 CE2        53.0428   18.1997    1.8254 C.ar        1 MOL      -0.0685
     10 CZ         54.3772   17.8197    2.0512 C.ar        1 MOL      -0.0687
     11 N          52.2752   18.3869   -4.2201 N.am        1 MOL      -0.2403
     12 CA         52.5452   17.6878   -5.4424 C.3         1 MOL       0.1331
     13 P          51.8169   18.5495   -6.6814 P.3         1 MOL       0.0925
     14 OP1        50.7332   19.4114   -6.2602 O.co2       1 MOL      -0.6054
     15 OP2        52.7855   19.5445   -7.0757 O.co2       1 MOL      -0.6054
     16 CB         52.0712   16.2063   -5.3182 C.3         1 MOL       0.0219
     17 CG         52.8552   15.4055   -4.3234 C.ar        1 MOL      -0.0392
     18 CD1        53.7313   14.3771   -4.7478 C.ar        1 MOL      -0.0602
     19 CD2        52.7414   15.6529   -2.9339 C.ar        1 MOL      -0.0602
     20 CE1        54.4855   13.6350   -3.8200 C.ar        1 MOL      -0.0686
     21 CE2        53.4954   14.9128   -2.0004 C.ar        1 MOL      -0.0686
     22 CZ         54.3707   13.9074   -2.4454 C.ar        1 MOL      -0.0687
     23 N          51.4997   17.8213   -7.9761 N.am        1 MOL      -0.2733
     24 CA         50.3028   17.1670   -8.3359 C.3         1 MOL       0.1230
     25 C          50.5093   16.3857   -9.5687 C.2         1 MOL       0.1994
     26 O          51.4386   15.5835   -9.5976 O.2         1 MOL      -0.3949
     27 CB         49.0314   18.0947   -8.3551 C.3         1 MOL      -0.0136
     28 CG         49.0221   19.4471   -9.1763 C.3         1 MOL      -0.0429
     29 CD1        50.1441   19.6480  -10.2362 C.3         1 MOL      -0.0625
     30 CD2        47.6323   19.6685   -9.8411 C.3         1 MOL      -0.0625
     31 N          49.6628   16.4203  -10.5940 N.am        1 MOL      -0.2701
     32 CA         49.7440   15.7403  -11.8526 C.3         1 MOL       0.0916
     33 C          49.1983   16.6450  -12.8852 C.2         1 MOL       0.0598
     34 O          49.8110   16.7982  -14.0837 O.co2       1 MOL      -0.5666
     35 CB         48.9335   14.4202  -11.8125 C.3         1 MOL      -0.0300
     36 OXT        48.0478   17.3247  -12.6701 O.co2       1 MOL      -0.5666
     37 H1         52.7319   21.1531   -0.9737 H           1 MOL       0.0776
     38 H2         54.2638   20.8044   -1.7481 H           1 MOL       0.0776
     39 H3         55.8152   19.3858   -0.5427 H           1 MOL       0.0557
     40 H4         51.7422   19.2863    0.5777 H           1 MOL       0.0557
     41 H5         56.3584   17.9737    1.3363 H           1 MOL       0.0599
     42 H6         52.3080   17.8831    2.4613 H           1 MOL       0.0599
     43 H7         54.6127   17.2255    2.8504 H           1 MOL       0.0559
     44 H8         51.3412   18.4487   -3.9576 H           1 MOL       0.1888
     45 H9         53.6180   17.6594   -5.6525 H           1 MOL       0.0803
     46 H10        52.1559   15.7259   -6.2978 H           1 MOL       0.0465
     47 H11        51.0146   16.1725   -5.0461 H           1 MOL       0.0465
     48 H12        53.8311   14.1579   -5.7418 H           1 MOL       0.0557
     49 H13        52.1087   16.3734   -2.5838 H           1 MOL       0.0557
     50 H14        55.1163   12.8989   -4.1438 H           1 MOL       0.0599
     51 H15        53.4053   15.1054   -1.0017 H           1 MOL       0.0599
     52 H16        54.9201   13.3707   -1.7702 H           1 MOL       0.0559
     53 H17        52.2445   17.6108   -8.4941 H           1 MOL       0.1669
     54 H18        50.1115   16.4106   -7.5665 H           1 MOL       0.0753
     55 H19        48.7925   18.3501   -7.3208 H           1 MOL       0.0311
     56 H20        48.1823   17.4774   -8.6572 H           1 MOL       0.0311
     57 H21        49.1449   20.2635   -8.4541 H           1 MOL       0.0298
     58 H22        50.0468   20.6315  -10.7063 H           1 MOL       0.0232
     59 H23        50.0900   18.8911  -11.0183 H           1 MOL       0.0232
     60 H24        51.1304   19.6134   -9.7749 H           1 MOL       0.0232
     61 H25        46.8362   19.6248   -9.0939 H           1 MOL       0.0232
     62 H26        47.4419   18.8999  -10.5940 H           1 MOL       0.0232
     63 H27        47.5815   20.6448  -10.3294 H           1 MOL       0.0232
     64 H28        48.8844   16.9845  -10.4959 H           1 MOL       0.1875
     65 H29        50.7816   15.4993  -12.1047 H           1 MOL       0.0723
     66 H30        48.9532   13.9296  -12.7891 H           1 MOL       0.0270
     67 H31        47.8934   14.6135  -11.5395 H           1 MOL       0.0270
     68 H32        49.3643   13.7387  -11.0784 H           1 MOL       0.0270
@<TRIPOS>BOND
     1    23    24   1
     2    24    27   1
     3    24    25   1
     4    25    26   2
     5    27    28   1
     6    28    29   1
     7    28    30   1
     8    31    32   1
     9    32    35   1
    10    32    33   1
    11    33    34  ar
    12    33    36  ar
    13    25    31  am
    14     1     2   2
    15     1     3   1
    16    11     1  am
    17     3     4   1
    18     4     5   1
    19     5     6  ar
    20     5     7  ar
    21     6     8  ar
    22     7     9  ar
    23     8    10  ar
    24     9    10  ar
    25    12    11   1
    26    13    12   1
    27    12    16   1
    28    13    14  ar
    29    13    15  ar
    30    13    23  am
    31    16    17   1
    32    17    18  ar
    33    17    19  ar
    34    18    20  ar
    35    19    21  ar
    36    20    22  ar
    37    21    22  ar
    38     4    37   1
    39     4    38   1
    40     6    39   1
    41     7    40   1
    42     8    41   1
    43     9    42   1
    44    10    43   1
    45    11    44   1
    46    12    45   1
    47    16    46   1
    48    16    47   1
    49    18    48   1
    50    19    49   1
    51    20    50   1
    52    21    51   1
    53    22    52   1
    54    23    53   1
    55    24    54   1
    56    27    55   1
    57    27    56   1
    58    28    57   1
    59    29    58   1
    60    29    59   1
    61    29    60   1
    62    30    61   1
    63    30    62   1
    64    30    63   1
    65    31    64   1
    66    32    65   1
    67    35    66   1
    68    35    67   1
    69    35    68   1
@<TRIPOS>SUBSTRUCTURE
     1  MOL      1

