@<TRIPOS>MOLECULE
4tmn_ligand_069
    68    69
SMALL
GAST_HUCK
****
This file was generated by PARSER (from files_GN.cpp)

@<TRIPOS>ATOM
      1 C          53.0913   14.0558   -2.8475 C.2         1 MOL       0.3232
      2 O          54.3862   13.7148   -3.0590 O.2         1 MOL      -0.3774
      3 OA         52.4262   13.6192   -1.7471 O.3         1 MOL      -0.2506
      4 CB         52.9248   12.7604   -0.7092 C.3         1 MOL       0.1113
      5 CG         51.9607   11.7336   -0.2389 C.ar        1 MOL      -0.0130
      6 CD1        50.5891   11.7474   -0.5965 C.ar        1 MOL      -0.0578
      7 CD2        52.4204   10.7095    0.6224 C.ar        1 MOL      -0.0578
      8 CE1        49.7086   10.7645   -0.1086 C.ar        1 MOL      -0.0685
      9 CE2        51.5438    9.7149    1.0964 C.ar        1 MOL      -0.0685
     10 CZ         50.1860    9.7449    0.7359 C.ar        1 MOL      -0.0687
     11 N          52.4397   14.8974   -3.6839 N.am        1 MOL      -0.2403
     12 CA         52.9915   15.5481   -4.8364 C.3         1 MOL       0.1331
     13 P          53.7004   16.9987   -4.3610 P.3         1 MOL       0.0925
     14 OP1        55.0453   16.7078   -3.9408 O.co2       1 MOL      -0.6054
     15 OP2        53.9092   17.9154   -5.4586 O.co2       1 MOL      -0.6054
     16 CB         51.8954   15.6879   -5.9513 C.3         1 MOL       0.0219
     17 CG         51.5899   14.4758   -6.7741 C.ar        1 MOL      -0.0392
     18 CD1        51.8338   13.1581   -6.3151 C.ar        1 MOL      -0.0602
     19 CD2        50.9969   14.6350   -8.0555 C.ar        1 MOL      -0.0602
     20 CE1        51.5540   12.0439   -7.1299 C.ar        1 MOL      -0.0686
     21 CE2        50.7093   13.5266   -8.8660 C.ar        1 MOL      -0.0686
     22 CZ         50.9941   12.2255   -8.4079 C.ar        1 MOL      -0.0687
     23 N          53.1421   17.7220   -3.1513 N.am        1 MOL      -0.2733
     24 CA         51.9690   18.4870   -3.0925 C.3         1 MOL       0.1230
     25 C          51.8030   19.3357   -4.2770 C.2         1 MOL       0.1994
     26 O          52.6233   20.2481   -4.4783 O.2         1 MOL      -0.3949
     27 CB         51.8933   19.3200   -1.7656 C.3         1 MOL      -0.0136
     28 CG         52.0943   18.6155   -0.3752 C.3         1 MOL      -0.0429
     29 CD1        51.5918   17.1480   -0.2912 C.3         1 MOL      -0.0625
     30 CD2        53.5426   18.7282    0.1782 C.3         1 MOL      -0.0625
     31 N          50.9033   19.0165   -5.2056 N.am        1 MOL      -0.2701
     32 CA         50.5997   19.6859   -6.4409 C.3         1 MOL       0.0916
     33 C          49.7557   18.8293   -7.3189 C.2         1 MOL       0.0598
     34 O          49.5970   17.4982   -7.1077 O.co2       1 MOL      -0.5666
     35 CB         51.8914   20.1138   -7.1840 C.3         1 MOL      -0.0300
     36 OXT        49.1075   19.3657   -8.3796 O.co2       1 MOL      -0.5666
     37 H1         53.1940   13.3903    0.1405 H           1 MOL       0.0776
     38 H2         53.8320   12.2538   -1.0518 H           1 MOL       0.0776
     39 H3         50.2177   12.4778   -1.2073 H           1 MOL       0.0557
     40 H4         53.4037   10.6729    0.9048 H           1 MOL       0.0557
     41 H5         48.7198   10.7874   -0.3681 H           1 MOL       0.0599
     42 H6         51.8952    8.9727    1.7052 H           1 MOL       0.0599
     43 H7         49.5468    9.0287    1.0873 H           1 MOL       0.0559
     44 H8         51.5239   15.1220   -3.4571 H           1 MOL       0.1888
     45 H9         53.7941   14.9346   -5.2497 H           1 MOL       0.0803
     46 H10        52.1985   16.4756   -6.6449 H           1 MOL       0.0465
     47 H11        50.9579   16.0211   -5.5055 H           1 MOL       0.0465
     48 H12        52.2229   12.9919   -5.3847 H           1 MOL       0.0557
     49 H13        50.7663   15.5685   -8.4081 H           1 MOL       0.0557
     50 H14        51.7479   11.0995   -6.7905 H           1 MOL       0.0599
     51 H15        50.2903   13.6611   -9.7892 H           1 MOL       0.0599
     52 H16        50.7772   11.4181   -8.9951 H           1 MOL       0.0559
     53 H17        53.4468   17.4051   -2.3318 H           1 MOL       0.1669
     54 H18        51.1365   17.7805   -3.0535 H           1 MOL       0.0753
     55 H19        50.8970   19.7704   -1.7526 H           1 MOL       0.0311
     56 H20        52.5991   20.1549   -1.8322 H           1 MOL       0.0311
     57 H21        51.4772   19.1787    0.3321 H           1 MOL       0.0298
     58 H22        51.6248   16.7979    0.7454 H           1 MOL       0.0232
     59 H23        52.2208   16.4890   -0.8870 H           1 MOL       0.0232
     60 H24        50.5618   17.0714   -0.6398 H           1 MOL       0.0232
     61 H25        53.8545   19.7732    0.2105 H           1 MOL       0.0232
     62 H26        54.2478   18.1699   -0.4353 H           1 MOL       0.0232
     63 H27        53.5938   18.3368    1.1984 H           1 MOL       0.0232
     64 H28        50.3854   18.2192   -5.0169 H           1 MOL       0.1875
     65 H29        50.0222   20.5867   -6.1981 H           1 MOL       0.0723
     66 H30        51.6561   20.6520   -8.1059 H           1 MOL       0.0270
     67 H31        52.5078   19.2459   -7.4237 H           1 MOL       0.0270
     68 H32        52.4780   20.7864   -6.5407 H           1 MOL       0.0270
@<TRIPOS>BOND
     1    23    24   1
     2    24    27   1
     3    24    25   1
     4    25    26   2
     5    27    28   1
     6    28    29   1
     7    28    30   1
     8    31    32   1
     9    32    35   1
    10    32    33   1
    11    33    34  ar
    12    33    36  ar
    13    25    31  am
    14     1     2   2
    15     1     3   1
    16    11     1  am
    17     3     4   1
    18     4     5   1
    19     5     6  ar
    20     5     7  ar
    21     6     8  ar
    22     7     9  ar
    23     8    10  ar
    24     9    10  ar
    25    12    11   1
    26    13    12   1
    27    12    16   1
    28    13    14  ar
    29    13    15  ar
    30    13    23  am
    31    16    17   1
    32    17    18  ar
    33    17    19  ar
    34    18    20  ar
    35    19    21  ar
    36    20    22  ar
    37    21    22  ar
    38     4    37   1
    39     4    38   1
    40     6    39   1
    41     7    40   1
    42     8    41   1
    43     9    42   1
    44    10    43   1
    45    11    44   1
    46    12    45   1
    47    16    46   1
    48    16    47   1
    49    18    48   1
    50    19    49   1
    51    20    50   1
    52    21    51   1
    53    22    52   1
    54    23    53   1
    55    24    54   1
    56    27    55   1
    57    27    56   1
    58    28    57   1
    59    29    58   1
    60    29    59   1
    61    29    60   1
    62    30    61   1
    63    30    62   1
    64    30    63   1
    65    31    64   1
    66    32    65   1
    67    35    66   1
    68    35    67   1
    69    35    68   1
@<TRIPOS>SUBSTRUCTURE
     1  MOL      1

