@<TRIPOS>MOLECULE
4tmn_ligand_050
    68    69
SMALL
GAST_HUCK
****
This file was generated by PARSER (from files_GN.cpp)

@<TRIPOS>ATOM
      1 C          54.0000   19.7673   -3.2283 C.2         1 MOL       0.3232
      2 O          54.8675   18.7705   -2.9390 O.2         1 MOL      -0.3774
      3 OA         53.9075   20.8653   -2.4338 O.3         1 MOL      -0.2506
      4 CB         54.6155   21.1291   -1.2197 C.3         1 MOL       0.1113
      5 CG         54.5287   20.0041   -0.2493 C.ar        1 MOL      -0.0130
      6 CD1        55.6847   19.5514    0.4309 C.ar        1 MOL      -0.0578
      7 CD2        53.3033   19.3413   -0.0115 C.ar        1 MOL      -0.0578
      8 CE1        55.6271   18.4493    1.3011 C.ar        1 MOL      -0.0685
      9 CE2        53.2426   18.2341    0.8604 C.ar        1 MOL      -0.0685
     10 CZ         54.4015   17.7836    1.5087 C.ar        1 MOL      -0.0687
     11 N          53.1178   19.6716   -4.2438 N.am        1 MOL      -0.2403
     12 CA         52.8720   18.4869   -5.0153 C.3         1 MOL       0.1331
     13 P          52.3094   18.9219   -6.5251 P.3         1 MOL       0.0925
     14 OP1        53.3756   19.6287   -7.1911 O.co2       1 MOL      -0.6054
     15 OP2        52.0873   17.7260   -7.3034 O.co2       1 MOL      -0.6054
     16 CB         51.8975   17.5394   -4.2312 C.3         1 MOL       0.0219
     17 CG         52.5778   16.4379   -3.4904 C.ar        1 MOL      -0.0392
     18 CD1        53.3592   15.4936   -4.1992 C.ar        1 MOL      -0.0602
     19 CD2        52.4184   16.2672   -2.0936 C.ar        1 MOL      -0.0602
     20 CE1        53.9899   14.4272   -3.5299 C.ar        1 MOL      -0.0686
     21 CE2        53.0380   15.1949   -1.4252 C.ar        1 MOL      -0.0686
     22 CZ         53.8298   14.2772   -2.1415 C.ar        1 MOL      -0.0687
     23 N          51.0851   19.8269   -6.5019 N.am        1 MOL      -0.2733
     24 CA         50.1101   19.9426   -7.5183 C.3         1 MOL       0.1230
     25 C          49.4035   18.6726   -7.7326 C.2         1 MOL       0.1994
     26 O          49.4203   18.1078   -8.8196 O.2         1 MOL      -0.3949
     27 CB         50.6334   20.8194   -8.7354 C.3         1 MOL      -0.0136
     28 CG         50.5708   20.3015  -10.2099 C.3         1 MOL      -0.0429
     29 CD1        49.1282   20.3404  -10.7962 C.3         1 MOL      -0.0625
     30 CD2        51.5342   21.1013  -11.1380 C.3         1 MOL      -0.0625
     31 N          48.7937   18.0860   -6.7012 N.am        1 MOL      -0.2701
     32 CA         48.0196   16.8752   -6.7020 C.3         1 MOL       0.0916
     33 C          48.8228   15.6571   -6.9914 C.2         1 MOL       0.0598
     34 O          50.0540   15.4972   -6.4546 O.co2       1 MOL      -0.5666
     35 CB         46.7735   17.0279   -7.6197 C.3         1 MOL      -0.0300
     36 OXT        48.3491   14.6486   -7.7568 O.co2       1 MOL      -0.5666
     37 H1         54.1707   22.0174   -0.7684 H           1 MOL       0.0776
     38 H2         55.6514   21.3657   -1.4734 H           1 MOL       0.0776
     39 H3         56.5774   20.0265    0.2948 H           1 MOL       0.0557
     40 H4         52.4491   19.6443   -0.4876 H           1 MOL       0.0557
     41 H5         56.4708   18.1293    1.7784 H           1 MOL       0.0599
     42 H6         52.3531   17.7530    1.0142 H           1 MOL       0.0599
     43 H7         54.3626   16.9762    2.1339 H           1 MOL       0.0559
     44 H8         52.4722   20.3911   -4.3120 H           1 MOL       0.1888
     45 H9         53.8241   17.9759   -5.2029 H           1 MOL       0.0803
     46 H10        51.1892   17.0573   -4.9037 H           1 MOL       0.0465
     47 H11        51.2886   18.1417   -3.5491 H           1 MOL       0.0465
     48 H12        53.4712   15.5717   -5.2113 H           1 MOL       0.0557
     49 H13        51.8375   16.9144   -1.5557 H           1 MOL       0.0557
     50 H14        54.5584   13.7586   -4.0549 H           1 MOL       0.0599
     51 H15        52.9134   15.0768   -0.4159 H           1 MOL       0.0599
     52 H16        54.2842   13.5026   -1.6551 H           1 MOL       0.0559
     53 H17        51.1443   20.5621   -5.9199 H           1 MOL       0.1669
     54 H18        49.3485   20.5760   -7.0518 H           1 MOL       0.0753
     55 H19        51.6753   21.0819   -8.5435 H           1 MOL       0.0311
     56 H20        50.0939   21.7709   -8.7154 H           1 MOL       0.0311
     57 H21        50.9360   19.2745  -10.2267 H           1 MOL       0.0298
     58 H22        49.1095   19.8793  -11.7872 H           1 MOL       0.0232
     59 H23        48.7842   21.3732  -10.8883 H           1 MOL       0.0232
     60 H24        48.4246   19.8039  -10.1608 H           1 MOL       0.0232
     61 H25        52.5471   21.1084  -10.7296 H           1 MOL       0.0232
     62 H26        51.2027   22.1372  -11.2463 H           1 MOL       0.0232
     63 H27        51.5756   20.6440  -12.1294 H           1 MOL       0.0232
     64 H28        48.8512   18.5517   -5.8458 H           1 MOL       0.1875
     65 H29        47.6457   16.7616   -5.6811 H           1 MOL       0.0723
     66 H30        46.1039   16.1721   -7.5100 H           1 MOL       0.0270
     67 H31        47.0717   17.1060   -8.6685 H           1 MOL       0.0270
     68 H32        46.2187   17.9287   -7.3536 H           1 MOL       0.0270
@<TRIPOS>BOND
     1    23    24   1
     2    24    27   1
     3    24    25   1
     4    25    26   2
     5    27    28   1
     6    28    29   1
     7    28    30   1
     8    31    32   1
     9    32    35   1
    10    32    33   1
    11    33    34  ar
    12    33    36  ar
    13    25    31  am
    14     1     2   2
    15     1     3   1
    16    11     1  am
    17     3     4   1
    18     4     5   1
    19     5     6  ar
    20     5     7  ar
    21     6     8  ar
    22     7     9  ar
    23     8    10  ar
    24     9    10  ar
    25    12    11   1
    26    13    12   1
    27    12    16   1
    28    13    14  ar
    29    13    15  ar
    30    13    23  am
    31    16    17   1
    32    17    18  ar
    33    17    19  ar
    34    18    20  ar
    35    19    21  ar
    36    20    22  ar
    37    21    22  ar
    38     4    37   1
    39     4    38   1
    40     6    39   1
    41     7    40   1
    42     8    41   1
    43     9    42   1
    44    10    43   1
    45    11    44   1
    46    12    45   1
    47    16    46   1
    48    16    47   1
    49    18    48   1
    50    19    49   1
    51    20    50   1
    52    21    51   1
    53    22    52   1
    54    23    53   1
    55    24    54   1
    56    27    55   1
    57    27    56   1
    58    28    57   1
    59    29    58   1
    60    29    59   1
    61    29    60   1
    62    30    61   1
    63    30    62   1
    64    30    63   1
    65    31    64   1
    66    32    65   1
    67    35    66   1
    68    35    67   1
    69    35    68   1
@<TRIPOS>SUBSTRUCTURE
     1  MOL      1

