@<TRIPOS>MOLECULE
4tmn_ligand_023
    68    69
SMALL
GAST_HUCK
****
This file was generated by PARSER (from files_GN.cpp)

@<TRIPOS>ATOM
      1 C          51.4431   19.9744   -7.4334 C.2         1 MOL       0.3232
      2 O          50.1654   20.0889   -6.9971 O.2         1 MOL      -0.3774
      3 OA         52.4594   19.8965   -6.5415 O.3         1 MOL      -0.2506
      4 CB         52.3624   19.9580   -5.1094 C.3         1 MOL       0.1113
      5 CG         52.7783   18.6917   -4.4585 C.ar        1 MOL      -0.0130
      6 CD1        52.0803   18.1814   -3.3381 C.ar        1 MOL      -0.0578
      7 CD2        53.9177   17.9902   -4.9213 C.ar        1 MOL      -0.0578
      8 CE1        52.5090   17.0085   -2.6929 C.ar        1 MOL      -0.0685
      9 CE2        54.3328   16.8025   -4.2861 C.ar        1 MOL      -0.0685
     10 CZ         53.6325   16.3153   -3.1671 C.ar        1 MOL      -0.0687
     11 N          51.7526   19.8545   -8.7455 N.am        1 MOL      -0.2403
     12 CA         50.8452   19.6960   -9.8548 C.3         1 MOL       0.1331
     13 P          49.9040   21.0642  -10.1461 P.3         1 MOL       0.0925
     14 OP1        49.6775   21.8544   -8.9629 O.co2       1 MOL      -0.6054
     15 OP2        50.6177   22.0033  -10.9731 O.co2       1 MOL      -0.6054
     16 CB         50.1403   18.2854   -9.8809 C.3         1 MOL       0.0219
     17 CG         49.4902   17.8026   -8.6330 C.ar        1 MOL      -0.0392
     18 CD1        50.2588   17.2048   -7.6047 C.ar        1 MOL      -0.0602
     19 CD2        48.1000   17.9601   -8.4372 C.ar        1 MOL      -0.0602
     20 CE1        49.6514   16.7834   -6.4066 C.ar        1 MOL      -0.0686
     21 CE2        47.4927   17.5357   -7.2414 C.ar        1 MOL      -0.0686
     22 CZ         48.2672   16.9474   -6.2258 C.ar        1 MOL      -0.0687
     23 N          48.5159   20.8732  -10.7233 N.am        1 MOL      -0.2733
     24 CA         48.1898   20.4927  -12.0420 C.3         1 MOL       0.1230
     25 C          48.2437   21.6194  -12.9709 C.2         1 MOL       0.1994
     26 O          48.6172   21.4068  -14.1203 O.2         1 MOL      -0.3949
     27 CB         46.7575   19.8618  -12.0112 C.3         1 MOL      -0.0136
     28 CG         46.2059   19.2475  -13.3442 C.3         1 MOL      -0.0429
     29 CD1        47.1065   18.1031  -13.8938 C.3         1 MOL      -0.0625
     30 CD2        44.7517   18.7264  -13.1461 C.3         1 MOL      -0.0625
     31 N          47.8501   22.8347  -12.5961 N.am        1 MOL      -0.2701
     32 CA         47.7266   24.0089  -13.4140 C.3         1 MOL       0.0916
     33 C          46.5804   23.8643  -14.3422 C.2         1 MOL       0.0598
     34 O          45.3509   23.5805  -13.8562 O.co2       1 MOL      -0.5666
     35 CB         49.0555   24.4200  -14.1048 C.3         1 MOL      -0.0300
     36 OXT        46.7250   23.9223  -15.6853 O.co2       1 MOL      -0.5666
     37 H1         51.3451   20.2193   -4.8048 H           1 MOL       0.0776
     38 H2         53.0186   20.7538   -4.7752 H           1 MOL       0.0776
     39 H3         51.2594   18.6751   -2.9696 H           1 MOL       0.0557
     40 H4         54.4501   18.3337   -5.7245 H           1 MOL       0.0557
     41 H5         52.0000   16.6574   -1.8754 H           1 MOL       0.0599
     42 H6         55.1467   16.2998   -4.6360 H           1 MOL       0.0599
     43 H7         53.9442   15.4611   -2.7037 H           1 MOL       0.0559
     44 H8         52.7028   19.7957   -8.9510 H           1 MOL       0.1888
     45 H9         51.5046   19.6659  -10.7223 H           1 MOL       0.0803
     46 H10        50.8907   17.5364  -10.1568 H           1 MOL       0.0465
     47 H11        49.4016   18.2656  -10.6959 H           1 MOL       0.0465
     48 H12        51.2756   17.1079   -7.7022 H           1 MOL       0.0557
     49 H13        47.5220   18.4144   -9.1506 H           1 MOL       0.0557
     50 H14        50.2263   16.3966   -5.6497 H           1 MOL       0.0599
     51 H15        46.4853   17.6690   -7.1050 H           1 MOL       0.0599
     52 H16        47.8245   16.6625   -5.3468 H           1 MOL       0.0559
     53 H17        47.8406   21.3118  -10.2528 H           1 MOL       0.1669
     54 H18        48.8928   19.7267  -12.3762 H           1 MOL       0.0753
     55 H19        46.0559   20.6384  -11.6727 H           1 MOL       0.0311
     56 H20        46.7492   19.0744  -11.2578 H           1 MOL       0.0311
     57 H21        46.1586   20.0293  -14.1025 H           1 MOL       0.0298
     58 H22        46.6801   17.6912  -14.8110 H           1 MOL       0.0232
     59 H23        47.2009   17.2989  -13.1626 H           1 MOL       0.0232
     60 H24        48.1023   18.4762  -14.1340 H           1 MOL       0.0232
     61 H25        44.0959   19.5429  -12.8384 H           1 MOL       0.0232
     62 H26        44.7186   17.9452  -12.3855 H           1 MOL       0.0232
     63 H27        44.3625   18.3191  -14.0818 H           1 MOL       0.0232
     64 H28        47.5745   22.9382  -11.6719 H           1 MOL       0.1875
     65 H29        47.4716   24.8234  -12.7341 H           1 MOL       0.0723
     66 H30        48.9160   25.3696  -14.6288 H           1 MOL       0.0270
     67 H31        49.3808   23.6758  -14.8301 H           1 MOL       0.0270
     68 H32        49.8415   24.5509  -13.3595 H           1 MOL       0.0270
@<TRIPOS>BOND
     1    23    24   1
     2    24    27   1
     3    24    25   1
     4    25    26   2
     5    27    28   1
     6    28    29   1
     7    28    30   1
     8    31    32   1
     9    32    35   1
    10    32    33   1
    11    33    34  ar
    12    33    36  ar
    13    25    31  am
    14     1     2   2
    15     1     3   1
    16    11     1  am
    17     3     4   1
    18     4     5   1
    19     5     6  ar
    20     5     7  ar
    21     6     8  ar
    22     7     9  ar
    23     8    10  ar
    24     9    10  ar
    25    12    11   1
    26    13    12   1
    27    12    16   1
    28    13    14  ar
    29    13    15  ar
    30    13    23  am
    31    16    17   1
    32    17    18  ar
    33    17    19  ar
    34    18    20  ar
    35    19    21  ar
    36    20    22  ar
    37    21    22  ar
    38     4    37   1
    39     4    38   1
    40     6    39   1
    41     7    40   1
    42     8    41   1
    43     9    42   1
    44    10    43   1
    45    11    44   1
    46    12    45   1
    47    16    46   1
    48    16    47   1
    49    18    48   1
    50    19    49   1
    51    20    50   1
    52    21    51   1
    53    22    52   1
    54    23    53   1
    55    24    54   1
    56    27    55   1
    57    27    56   1
    58    28    57   1
    59    29    58   1
    60    29    59   1
    61    29    60   1
    62    30    61   1
    63    30    62   1
    64    30    63   1
    65    31    64   1
    66    32    65   1
    67    35    66   1
    68    35    67   1
    69    35    68   1
@<TRIPOS>SUBSTRUCTURE
     1  MOL      1

