@<TRIPOS>MOLECULE
4tmn_ligand_037
    68    69
SMALL
GAST_HUCK
****
This file was generated by PARSER (from files_GN.cpp)

@<TRIPOS>ATOM
      1 C          51.3054   19.7862   -7.3311 C.2         1 MOL       0.3232
      2 O          50.0585   20.0166   -6.8571 O.2         1 MOL      -0.3774
      3 OA         52.3711   19.7664   -6.4905 O.3         1 MOL      -0.2506
      4 CB         52.3466   19.9400   -5.0671 C.3         1 MOL       0.1113
      5 CG         52.7767   18.7056   -4.3643 C.ar        1 MOL      -0.0130
      6 CD1        52.1325   18.2721   -3.1812 C.ar        1 MOL      -0.0578
      7 CD2        53.8612   17.9429   -4.8644 C.ar        1 MOL      -0.0578
      8 CE1        52.5484   17.1032   -2.5210 C.ar        1 MOL      -0.0685
      9 CE2        54.2586   16.7569   -4.2174 C.ar        1 MOL      -0.0685
     10 CZ         53.6054   16.3395   -3.0426 C.ar        1 MOL      -0.0687
     11 N          51.5259   19.5174   -8.6386 N.am        1 MOL      -0.2403
     12 CA         50.5372   19.4116   -9.6797 C.3         1 MOL       0.1331
     13 P          49.9298   20.9255  -10.0876 P.3         1 MOL       0.0925
     14 OP1        49.5595   21.7070   -8.9434 O.co2       1 MOL      -0.6054
     15 OP2        50.9675   21.7015  -10.7197 O.co2       1 MOL      -0.6054
     16 CB         49.5045   18.2554   -9.3985 C.3         1 MOL       0.0219
     17 CG         49.9483   16.9410   -9.9486 C.ar        1 MOL      -0.0392
     18 CD1        49.3441   16.3733  -11.0983 C.ar        1 MOL      -0.0602
     19 CD2        51.0141   16.2464   -9.3330 C.ar        1 MOL      -0.0602
     20 CE1        49.8023   15.1457  -11.6169 C.ar        1 MOL      -0.0686
     21 CE2        51.4511   15.0094   -9.8366 C.ar        1 MOL      -0.0686
     22 CZ         50.8488   14.4581  -10.9794 C.ar        1 MOL      -0.0687
     23 N          48.7188   20.9846  -11.0026 N.am        1 MOL      -0.2733
     24 CA         48.4249   20.1745  -12.1104 C.3         1 MOL       0.1230
     25 C          49.1750   20.6402  -13.2793 C.2         1 MOL       0.1994
     26 O          50.3036   20.1862  -13.4367 O.2         1 MOL      -0.3949
     27 CB         46.8695   19.9912  -12.3195 C.3         1 MOL      -0.0136
     28 CG         45.8985   21.0272  -11.6499 C.3         1 MOL      -0.0429
     29 CD1        44.5290   21.0977  -12.3840 C.3         1 MOL      -0.0625
     30 CD2        45.6606   20.7230  -10.1388 C.3         1 MOL      -0.0625
     31 N          48.6783   21.5327  -14.1206 N.am        1 MOL      -0.2701
     32 CA         49.2778   22.0166  -15.3358 C.3         1 MOL       0.0916
     33 C          49.4208   20.9573  -16.3644 C.2         1 MOL       0.0598
     34 O          48.7372   21.0121  -17.5197 O.co2       1 MOL      -0.5666
     35 CB         50.5957   22.7924  -15.0842 C.3         1 MOL      -0.0300
     36 OXT        50.2684   19.9111  -16.1914 O.co2       1 MOL      -0.5666
     37 H1         51.3478   20.2298   -4.7310 H           1 MOL       0.0776
     38 H2         53.0267   20.7484   -4.8146 H           1 MOL       0.0776
     39 H3         51.3577   18.8137   -2.7841 H           1 MOL       0.0557
     40 H4         54.3573   18.2347   -5.7073 H           1 MOL       0.0557
     41 H5         52.0797   16.8042   -1.6608 H           1 MOL       0.0599
     42 H6         55.0234   16.2031   -4.5974 H           1 MOL       0.0599
     43 H7         53.9054   15.4828   -2.5695 H           1 MOL       0.0559
     44 H8         52.4392   19.2975   -8.8865 H           1 MOL       0.1888
     45 H9         51.0911   19.1196  -10.5742 H           1 MOL       0.0803
     46 H10        48.5202   18.5170   -9.8021 H           1 MOL       0.0465
     47 H11        49.3447   18.1200   -8.3234 H           1 MOL       0.0465
     48 H12        48.5740   16.8480  -11.5740 H           1 MOL       0.0557
     49 H13        51.4771   16.6380   -8.5081 H           1 MOL       0.0557
     50 H14        49.3719   14.7505  -12.4549 H           1 MOL       0.0599
     51 H15        52.2093   14.5080   -9.3696 H           1 MOL       0.0599
     52 H16        51.1691   13.5603  -11.3399 H           1 MOL       0.0559
     53 H17        48.2305   21.7744  -10.9322 H           1 MOL       0.1669
     54 H18        48.7946   19.1562  -11.9022 H           1 MOL       0.0753
     55 H19        46.5890   19.0000  -11.9450 H           1 MOL       0.0311
     56 H20        46.6716   19.9502  -13.3926 H           1 MOL       0.0311
     57 H21        46.3418   22.0242  -11.7358 H           1 MOL       0.0298
     58 H22        43.8832   21.8423  -11.9118 H           1 MOL       0.0232
     59 H23        44.0237   20.1297  -12.3589 H           1 MOL       0.0232
     60 H24        44.6709   21.3912  -13.4263 H           1 MOL       0.0232
     61 H25        46.5957   20.6644   -9.5849 H           1 MOL       0.0232
     62 H26        45.1339   19.7748  -10.0151 H           1 MOL       0.0232
     63 H27        45.0568   21.5086   -9.6826 H           1 MOL       0.0232
     64 H28        47.8019   21.8916  -13.9017 H           1 MOL       0.1875
     65 H29        48.5593   22.7447  -15.7295 H           1 MOL       0.0723
     66 H30        50.9369   23.2626  -16.0054 H           1 MOL       0.0270
     67 H31        51.3843   22.1314  -14.7247 H           1 MOL       0.0270
     68 H32        50.4297   23.5715  -14.3391 H           1 MOL       0.0270
@<TRIPOS>BOND
     1    23    24   1
     2    24    27   1
     3    24    25   1
     4    25    26   2
     5    27    28   1
     6    28    29   1
     7    28    30   1
     8    31    32   1
     9    32    35   1
    10    32    33   1
    11    33    34  ar
    12    33    36  ar
    13    25    31  am
    14     1     2   2
    15     1     3   1
    16    11     1  am
    17     3     4   1
    18     4     5   1
    19     5     6  ar
    20     5     7  ar
    21     6     8  ar
    22     7     9  ar
    23     8    10  ar
    24     9    10  ar
    25    12    11   1
    26    13    12   1
    27    12    16   1
    28    13    14  ar
    29    13    15  ar
    30    13    23  am
    31    16    17   1
    32    17    18  ar
    33    17    19  ar
    34    18    20  ar
    35    19    21  ar
    36    20    22  ar
    37    21    22  ar
    38     4    37   1
    39     4    38   1
    40     6    39   1
    41     7    40   1
    42     8    41   1
    43     9    42   1
    44    10    43   1
    45    11    44   1
    46    12    45   1
    47    16    46   1
    48    16    47   1
    49    18    48   1
    50    19    49   1
    51    20    50   1
    52    21    51   1
    53    22    52   1
    54    23    53   1
    55    24    54   1
    56    27    55   1
    57    27    56   1
    58    28    57   1
    59    29    58   1
    60    29    59   1
    61    29    60   1
    62    30    61   1
    63    30    62   1
    64    30    63   1
    65    31    64   1
    66    32    65   1
    67    35    66   1
    68    35    67   1
    69    35    68   1
@<TRIPOS>SUBSTRUCTURE
     1  MOL      1

