@<TRIPOS>MOLECULE
4tmn_ligand_002
    68    69
SMALL
GAST_HUCK
****
This file was generated by PARSER (from files_GN.cpp)

@<TRIPOS>ATOM
      1 C          47.2912   19.6396  -10.5116 C.2         1 MOL       0.3232
      2 O          47.3806   18.2877  -10.5237 O.2         1 MOL      -0.3774
      3 OA         46.0898   20.2569  -10.6506 O.3         1 MOL      -0.2506
      4 CB         44.8031   19.6491  -10.8093 C.3         1 MOL       0.1113
      5 CG         44.6150   18.8511  -12.0514 C.ar        1 MOL      -0.0130
      6 CD1        43.4714   18.0294  -12.1846 C.ar        1 MOL      -0.0578
      7 CD2        45.5539   18.8781  -13.1152 C.ar        1 MOL      -0.0578
      8 CE1        43.2970   17.2093  -13.3152 C.ar        1 MOL      -0.0685
      9 CE2        45.3837   18.0524  -14.2453 C.ar        1 MOL      -0.0685
     10 CZ         44.2644   17.2071  -14.3375 C.ar        1 MOL      -0.0687
     11 N          48.3847   20.4311  -10.4640 N.am        1 MOL      -0.2403
     12 CA         49.7571   20.0159  -10.5793 C.3         1 MOL       0.1331
     13 P          50.6761   20.6296   -9.3114 P.3         1 MOL       0.0925
     14 OP1        51.9504   21.1100   -9.7872 O.co2       1 MOL      -0.6054
     15 OP2        50.0741   21.7637   -8.6481 O.co2       1 MOL      -0.6054
     16 CB         50.2718   20.3050  -12.0330 C.3         1 MOL       0.0219
     17 CG         49.8979   21.6209  -12.6482 C.ar        1 MOL      -0.0392
     18 CD1        50.3916   22.8473  -12.1354 C.ar        1 MOL      -0.0602
     19 CD2        49.0723   21.6622  -13.7996 C.ar        1 MOL      -0.0602
     20 CE1        50.0577   24.0732  -12.7449 C.ar        1 MOL      -0.0686
     21 CE2        48.7554   22.8873  -14.4187 C.ar        1 MOL      -0.0686
     22 CZ         49.2415   24.0936  -13.8865 C.ar        1 MOL      -0.0687
     23 N          51.0971   19.5541   -8.3344 N.am        1 MOL      -0.2733
     24 CA         50.6457   19.3321   -7.0167 C.3         1 MOL       0.1230
     25 C          51.7764   19.1175   -6.1091 C.2         1 MOL       0.1994
     26 O          52.9061   19.4746   -6.4322 O.2         1 MOL      -0.3949
     27 CB         49.5597   18.2040   -7.0300 C.3         1 MOL      -0.0136
     28 CG         49.9803   16.7587   -7.4659 C.3         1 MOL      -0.0429
     29 CD1        51.0796   16.1286   -6.5703 C.3         1 MOL      -0.0625
     30 CD2        48.7368   15.8297   -7.5013 C.3         1 MOL      -0.0625
     31 N          51.5799   18.6654   -4.8748 N.am        1 MOL      -0.2701
     32 CA         52.5727   18.5150   -3.8442 C.3         1 MOL       0.0916
     33 C          53.4758   17.3547   -4.0680 C.2         1 MOL       0.0598
     34 O          52.9899   16.1757   -4.5221 O.co2       1 MOL      -0.5666
     35 CB         51.8635   18.3826   -2.4761 C.3         1 MOL      -0.0300
     36 OXT        54.6823   17.3145   -3.4569 O.co2       1 MOL      -0.5666
     37 H1         44.0565   20.4448  -10.8017 H           1 MOL       0.0776
     38 H2         44.6251   19.0176   -9.9337 H           1 MOL       0.0776
     39 H3         42.7630   18.0103  -11.4438 H           1 MOL       0.0557
     40 H4         46.3721   19.4852  -13.0814 H           1 MOL       0.0557
     41 H5         42.4748   16.6059  -13.3881 H           1 MOL       0.0599
     42 H6         46.0790   18.0625  -14.9960 H           1 MOL       0.0599
     43 H7         44.1526   16.5930  -15.1483 H           1 MOL       0.0559
     44 H8         48.2137   21.3887  -10.4773 H           1 MOL       0.1888
     45 H9         49.8172   18.9275  -10.4655 H           1 MOL       0.0803
     46 H10        49.8935   19.4930  -12.6582 H           1 MOL       0.0465
     47 H11        51.3599   20.2074  -12.0805 H           1 MOL       0.0465
     48 H12        51.0121   22.8560  -11.3164 H           1 MOL       0.0557
     49 H13        48.7037   20.7985  -14.2114 H           1 MOL       0.0557
     50 H14        50.4241   24.9461  -12.3606 H           1 MOL       0.0599
     51 H15        48.1716   22.9003  -15.2611 H           1 MOL       0.0599
     52 H16        49.0066   24.9843  -14.3303 H           1 MOL       0.0559
     53 H17        51.6473   18.8869   -8.6910 H           1 MOL       0.1669
     54 H18        50.1503   20.2327   -6.6256 H           1 MOL       0.0753
     55 H19        48.7824   18.5383   -7.7222 H           1 MOL       0.0311
     56 H20        49.0854   18.1517   -6.0456 H           1 MOL       0.0311
     57 H21        50.3797   16.8078   -8.4816 H           1 MOL       0.0298
     58 H22        51.2707   15.0907   -6.8595 H           1 MOL       0.0232
     59 H23        50.7720   16.1432   -5.5252 H           1 MOL       0.0232
     60 H24        52.0136   16.6788   -6.6703 H           1 MOL       0.0232
     61 H25        47.9866   16.2234   -8.1889 H           1 MOL       0.0232
     62 H26        48.2849   15.7478   -6.5085 H           1 MOL       0.0232
     63 H27        49.0103   14.8314   -7.8407 H           1 MOL       0.0232
     64 H28        50.6646   18.4771   -4.6245 H           1 MOL       0.1875
     65 H29        53.1845   19.4230   -3.8137 H           1 MOL       0.0723
     66 H30        52.5921   18.3371   -1.6647 H           1 MOL       0.0270
     67 H31        51.2500   17.4799   -2.4477 H           1 MOL       0.0270
     68 H32        51.2136   19.2451   -2.3064 H           1 MOL       0.0270
@<TRIPOS>BOND
     1    23    24   1
     2    24    27   1
     3    24    25   1
     4    25    26   2
     5    27    28   1
     6    28    29   1
     7    28    30   1
     8    31    32   1
     9    32    35   1
    10    32    33   1
    11    33    34  ar
    12    33    36  ar
    13    25    31  am
    14     1     2   2
    15     1     3   1
    16    11     1  am
    17     3     4   1
    18     4     5   1
    19     5     6  ar
    20     5     7  ar
    21     6     8  ar
    22     7     9  ar
    23     8    10  ar
    24     9    10  ar
    25    12    11   1
    26    13    12   1
    27    12    16   1
    28    13    14  ar
    29    13    15  ar
    30    13    23  am
    31    16    17   1
    32    17    18  ar
    33    17    19  ar
    34    18    20  ar
    35    19    21  ar
    36    20    22  ar
    37    21    22  ar
    38     4    37   1
    39     4    38   1
    40     6    39   1
    41     7    40   1
    42     8    41   1
    43     9    42   1
    44    10    43   1
    45    11    44   1
    46    12    45   1
    47    16    46   1
    48    16    47   1
    49    18    48   1
    50    19    49   1
    51    20    50   1
    52    21    51   1
    53    22    52   1
    54    23    53   1
    55    24    54   1
    56    27    55   1
    57    27    56   1
    58    28    57   1
    59    29    58   1
    60    29    59   1
    61    29    60   1
    62    30    61   1
    63    30    62   1
    64    30    63   1
    65    31    64   1
    66    32    65   1
    67    35    66   1
    68    35    67   1
    69    35    68   1
@<TRIPOS>SUBSTRUCTURE
     1  MOL      1

