@<TRIPOS>MOLECULE
4tmn_ligand_005
    68    69
SMALL
GAST_HUCK
****
This file was generated by PARSER (from files_GN.cpp)

@<TRIPOS>ATOM
      1 C          49.4240   16.3581   -6.4128 C.2         1 MOL       0.3232
      2 O          50.0708   15.4350   -7.1686 O.2         1 MOL      -0.3774
      3 OA         48.1108   16.2197   -6.0984 O.3         1 MOL      -0.2506
      4 CB         47.2032   15.1818   -6.4918 C.3         1 MOL       0.1113
      5 CG         46.0082   15.6828   -7.2180 C.ar        1 MOL      -0.0130
      6 CD1        45.7277   17.0617   -7.3770 C.ar        1 MOL      -0.0578
      7 CD2        45.0985   14.7446   -7.7659 C.ar        1 MOL      -0.0578
      8 CE1        44.5692   17.4877   -8.0482 C.ar        1 MOL      -0.0685
      9 CE2        43.9453   15.1704   -8.4473 C.ar        1 MOL      -0.0685
     10 CZ         43.6771   16.5434   -8.5880 C.ar        1 MOL      -0.0687
     11 N          50.0253   17.4921   -5.9937 N.am        1 MOL      -0.2403
     12 CA         51.3558   17.9229   -6.3201 C.3         1 MOL       0.1331
     13 P          51.7104   19.3075   -5.4377 P.3         1 MOL       0.0925
     14 OP1        52.7848   20.0729   -6.0212 O.co2       1 MOL      -0.6054
     15 OP2        50.5431   20.1597   -5.4734 O.co2       1 MOL      -0.6054
     16 CB         51.5936   18.0711   -7.8614 C.3         1 MOL       0.0219
     17 CG         51.0439   19.2893   -8.5242 C.ar        1 MOL      -0.0392
     18 CD1        49.6468   19.5263   -8.5782 C.ar        1 MOL      -0.0602
     19 CD2        51.9080   20.2255   -9.1412 C.ar        1 MOL      -0.0602
     20 CE1        49.1361   20.6856   -9.1902 C.ar        1 MOL      -0.0686
     21 CE2        51.3984   21.3872   -9.7540 C.ar        1 MOL      -0.0686
     22 CZ         50.0134   21.6184   -9.7743 C.ar        1 MOL      -0.0687
     23 N          51.9666   19.0083   -3.9722 N.am        1 MOL      -0.2733
     24 CA         53.1989   18.6414   -3.3862 C.3         1 MOL       0.1230
     25 C          53.5210   17.2312   -3.6313 C.2         1 MOL       0.1994
     26 O          54.6942   16.8949   -3.7500 O.2         1 MOL      -0.3949
     27 CB         53.1381   18.9223   -1.8447 C.3         1 MOL      -0.0136
     28 CG         54.5241   18.8196   -1.1065 C.3         1 MOL      -0.0429
     29 CD1        55.3411   20.1338   -1.2452 C.3         1 MOL      -0.0625
     30 CD2        54.3631   18.4378    0.3903 C.3         1 MOL      -0.0625
     31 N          52.5526   16.3197   -3.6044 N.am        1 MOL      -0.2701
     32 CA         52.6703   14.8904   -3.7128 C.3         1 MOL       0.0916
     33 C          53.4935   14.3260   -2.6111 C.2         1 MOL       0.0598
     34 O          54.8155   14.6219   -2.5235 O.co2       1 MOL      -0.5666
     35 CB         53.1614   14.3884   -5.0966 C.3         1 MOL      -0.0300
     36 OXT        52.9347   13.4525   -1.7354 O.co2       1 MOL      -0.5666
     37 H1         46.8674   14.6780   -5.5802 H           1 MOL       0.0776
     38 H2         47.7145   14.4454   -7.1129 H           1 MOL       0.0776
     39 H3         46.3562   17.7705   -6.9954 H           1 MOL       0.0557
     40 H4         45.2693   13.7405   -7.6633 H           1 MOL       0.0557
     41 H5         44.3691   18.4860   -8.1424 H           1 MOL       0.0599
     42 H6         43.2967   14.4826   -8.8352 H           1 MOL       0.0599
     43 H7         42.8371   16.8542   -9.0809 H           1 MOL       0.0559
     44 H8         49.4984   18.0701   -5.4155 H           1 MOL       0.1888
     45 H9         52.0460   17.1475   -5.9752 H           1 MOL       0.0803
     46 H10        51.1843   17.2050   -8.3864 H           1 MOL       0.0465
     47 H11        52.6758   18.0220   -8.0174 H           1 MOL       0.0465
     48 H12        48.9921   18.8565   -8.1694 H           1 MOL       0.0557
     49 H13        52.9208   20.0778   -9.1384 H           1 MOL       0.0557
     50 H14        48.1267   20.8493   -9.2121 H           1 MOL       0.0599
     51 H15        52.0383   22.0573  -10.1893 H           1 MOL       0.0599
     52 H16        49.6452   22.4596  -10.2228 H           1 MOL       0.0559
     53 H17        51.1977   18.8178   -3.4766 H           1 MOL       0.1669
     54 H18        53.9827   19.2885   -3.7988 H           1 MOL       0.0753
     55 H19        52.4261   18.2139   -1.3937 H           1 MOL       0.0311
     56 H20        52.7220   19.9241   -1.6677 H           1 MOL       0.0311
     57 H21        55.1082   18.0159   -1.5677 H           1 MOL       0.0298
     58 H22        56.3315   20.0117   -0.8021 H           1 MOL       0.0232
     59 H23        54.8336   20.9578   -0.7374 H           1 MOL       0.0232
     60 H24        55.4724   20.4003   -2.2973 H           1 MOL       0.0232
     61 H25        53.8988   17.4556    0.4846 H           1 MOL       0.0232
     62 H26        53.7444   19.1690    0.9143 H           1 MOL       0.0232
     63 H27        55.3408   18.3945    0.8795 H           1 MOL       0.0232
     64 H28        51.6522   16.6508   -3.4788 H           1 MOL       0.1875
     65 H29        51.6504   14.5090   -3.5938 H           1 MOL       0.0723
     66 H30        53.0873   13.3048   -5.1429 H           1 MOL       0.0270
     67 H31        54.2013   14.6677   -5.2916 H           1 MOL       0.0270
     68 H32        52.5381   14.8122   -5.8857 H           1 MOL       0.0270
@<TRIPOS>BOND
     1    23    24   1
     2    24    27   1
     3    24    25   1
     4    25    26   2
     5    27    28   1
     6    28    29   1
     7    28    30   1
     8    31    32   1
     9    32    35   1
    10    32    33   1
    11    33    34  ar
    12    33    36  ar
    13    25    31  am
    14     1     2   2
    15     1     3   1
    16    11     1  am
    17     3     4   1
    18     4     5   1
    19     5     6  ar
    20     5     7  ar
    21     6     8  ar
    22     7     9  ar
    23     8    10  ar
    24     9    10  ar
    25    12    11   1
    26    13    12   1
    27    12    16   1
    28    13    14  ar
    29    13    15  ar
    30    13    23  am
    31    16    17   1
    32    17    18  ar
    33    17    19  ar
    34    18    20  ar
    35    19    21  ar
    36    20    22  ar
    37    21    22  ar
    38     4    37   1
    39     4    38   1
    40     6    39   1
    41     7    40   1
    42     8    41   1
    43     9    42   1
    44    10    43   1
    45    11    44   1
    46    12    45   1
    47    16    46   1
    48    16    47   1
    49    18    48   1
    50    19    49   1
    51    20    50   1
    52    21    51   1
    53    22    52   1
    54    23    53   1
    55    24    54   1
    56    27    55   1
    57    27    56   1
    58    28    57   1
    59    29    58   1
    60    29    59   1
    61    29    60   1
    62    30    61   1
    63    30    62   1
    64    30    63   1
    65    31    64   1
    66    32    65   1
    67    35    66   1
    68    35    67   1
    69    35    68   1
@<TRIPOS>SUBSTRUCTURE
     1  MOL      1

