@<TRIPOS>MOLECULE
4tmn_ligand_015
    68    69
SMALL
GAST_HUCK
****
This file was generated by PARSER (from files_GN.cpp)

@<TRIPOS>ATOM
      1 C          51.6466   19.1627   -6.9927 C.2         1 MOL       0.3232
      2 O          52.5805   19.8683   -7.6739 O.2         1 MOL      -0.3774
      3 OA         51.8791   18.7360   -5.7271 O.3         1 MOL      -0.2506
      4 CB         53.0422   18.9681   -4.9274 C.3         1 MOL       0.1113
      5 CG         52.9541   18.1139   -3.7168 C.ar        1 MOL      -0.0130
      6 CD1        53.8388   17.0265   -3.5266 C.ar        1 MOL      -0.0578
      7 CD2        51.9455   18.3459   -2.7506 C.ar        1 MOL      -0.0578
      8 CE1        53.7122   16.1863   -2.4053 C.ar        1 MOL      -0.0685
      9 CE2        51.8198   17.5064   -1.6281 C.ar        1 MOL      -0.0685
     10 CZ         52.7003   16.4243   -1.4561 C.ar        1 MOL      -0.0687
     11 N          50.4720   18.7793   -7.5385 N.am        1 MOL      -0.2403
     12 CA         50.0917   18.8554   -8.9222 C.3         1 MOL       0.1331
     13 P          49.9666   20.4386   -9.4807 P.3         1 MOL       0.0925
     14 OP1        49.8997   21.3382   -8.3597 O.co2       1 MOL      -0.6054
     15 OP2        51.1860   20.8641  -10.1158 O.co2       1 MOL      -0.6054
     16 CB         48.8125   17.9790   -9.1412 C.3         1 MOL       0.0219
     17 CG         48.8358   16.6579   -8.4496 C.ar        1 MOL      -0.0392
     18 CD1        49.7930   15.6735   -8.8014 C.ar        1 MOL      -0.0602
     19 CD2        47.8998   16.3576   -7.4252 C.ar        1 MOL      -0.0602
     20 CE1        49.8221   14.4309   -8.1410 C.ar        1 MOL      -0.0686
     21 CE2        47.9187   15.1090   -6.7774 C.ar        1 MOL      -0.0686
     22 CZ         48.8777   14.1405   -7.1392 C.ar        1 MOL      -0.0687
     23 N          48.7683   20.8928  -10.2974 N.am        1 MOL      -0.2733
     24 CA         48.4059   20.5553  -11.6151 C.3         1 MOL       0.1230
     25 C          49.4121   20.9644  -12.5958 C.2         1 MOL       0.1994
     26 O          49.9394   20.1002  -13.2885 O.2         1 MOL      -0.3949
     27 CB         47.0031   21.1876  -11.9097 C.3         1 MOL      -0.0136
     28 CG         46.3309   20.8399  -13.2801 C.3         1 MOL      -0.0429
     29 CD1        45.9107   19.3464  -13.3742 C.3         1 MOL      -0.0625
     30 CD2        45.1052   21.7607  -13.5365 C.3         1 MOL      -0.0625
     31 N          49.7604   22.2423  -12.6982 N.am        1 MOL      -0.2701
     32 CA         50.7836   22.8012  -13.5319 C.3         1 MOL       0.0916
     33 C          51.5281   23.8461  -12.7961 C.2         1 MOL       0.0598
     34 O          52.7552   24.2254  -13.2172 O.co2       1 MOL      -0.5666
     35 CB         50.1334   23.3758  -14.8115 C.3         1 MOL      -0.0300
     36 OXT        51.0444   24.4404  -11.6778 O.co2       1 MOL      -0.5666
     37 H1         53.0836   20.0214   -4.6370 H           1 MOL       0.0776
     38 H2         53.9364   18.7372   -5.5177 H           1 MOL       0.0776
     39 H3         54.5732   16.8287   -4.2119 H           1 MOL       0.0557
     40 H4         51.2889   19.1193   -2.8661 H           1 MOL       0.0557
     41 H5         54.3471   15.3926   -2.2864 H           1 MOL       0.0599
     42 H6         51.0766   17.6750   -0.9439 H           1 MOL       0.0599
     43 H7         52.6044   15.8075   -0.6448 H           1 MOL       0.0559
     44 H8         49.8711   18.3048   -6.9422 H           1 MOL       0.1888
     45 H9         50.8861   18.3867   -9.5096 H           1 MOL       0.0803
     46 H10        48.7025   17.7683  -10.2070 H           1 MOL       0.0465
     47 H11        47.9254   18.5429   -8.8332 H           1 MOL       0.0465
     48 H12        50.4815   15.8593   -9.5336 H           1 MOL       0.0557
     49 H13        47.2057   17.0474   -7.1392 H           1 MOL       0.0557
     50 H14        50.5256   13.7324   -8.3980 H           1 MOL       0.0599
     51 H15        47.2439   14.9049   -6.0432 H           1 MOL       0.0599
     52 H16        48.8942   13.2373   -6.6631 H           1 MOL       0.0559
     53 H17        48.1663   21.4463   -9.8421 H           1 MOL       0.1669
     54 H18        48.2717   19.4737  -11.6541 H           1 MOL       0.0753
     55 H19        47.1009   22.2765  -11.8406 H           1 MOL       0.0311
     56 H20        46.3097   20.8948  -11.1136 H           1 MOL       0.0311
     57 H21        47.0520   21.0356  -14.0776 H           1 MOL       0.0298
     58 H22        45.3954   19.1514  -14.3193 H           1 MOL       0.0232
     59 H23        45.2369   19.0881  -12.5531 H           1 MOL       0.0232
     60 H24        46.7845   18.6932  -13.3312 H           1 MOL       0.0232
     61 H25        45.4115   22.8102  -13.5470 H           1 MOL       0.0232
     62 H26        44.3520   21.6253  -12.7540 H           1 MOL       0.0232
     63 H27        44.6482   21.5338  -14.5040 H           1 MOL       0.0232
     64 H28        49.2759   22.8709  -12.1378 H           1 MOL       0.1875
     65 H29        51.5083   22.0431  -13.8362 H           1 MOL       0.0723
     66 H30        50.9005   23.7515  -15.4947 H           1 MOL       0.0270
     67 H31        49.4455   24.1943  -14.5760 H           1 MOL       0.0270
     68 H32        49.5760   22.5921  -15.3309 H           1 MOL       0.0270
@<TRIPOS>BOND
     1    23    24   1
     2    24    27   1
     3    24    25   1
     4    25    26   2
     5    27    28   1
     6    28    29   1
     7    28    30   1
     8    31    32   1
     9    32    35   1
    10    32    33   1
    11    33    34  ar
    12    33    36  ar
    13    25    31  am
    14     1     2   2
    15     1     3   1
    16    11     1  am
    17     3     4   1
    18     4     5   1
    19     5     6  ar
    20     5     7  ar
    21     6     8  ar
    22     7     9  ar
    23     8    10  ar
    24     9    10  ar
    25    12    11   1
    26    13    12   1
    27    12    16   1
    28    13    14  ar
    29    13    15  ar
    30    13    23  am
    31    16    17   1
    32    17    18  ar
    33    17    19  ar
    34    18    20  ar
    35    19    21  ar
    36    20    22  ar
    37    21    22  ar
    38     4    37   1
    39     4    38   1
    40     6    39   1
    41     7    40   1
    42     8    41   1
    43     9    42   1
    44    10    43   1
    45    11    44   1
    46    12    45   1
    47    16    46   1
    48    16    47   1
    49    18    48   1
    50    19    49   1
    51    20    50   1
    52    21    51   1
    53    22    52   1
    54    23    53   1
    55    24    54   1
    56    27    55   1
    57    27    56   1
    58    28    57   1
    59    29    58   1
    60    29    59   1
    61    29    60   1
    62    30    61   1
    63    30    62   1
    64    30    63   1
    65    31    64   1
    66    32    65   1
    67    35    66   1
    68    35    67   1
    69    35    68   1
@<TRIPOS>SUBSTRUCTURE
     1  MOL      1

