@<TRIPOS>MOLECULE
4tmn_ligand_007
    68    69
SMALL
GAST_HUCK
****
This file was generated by PARSER (from files_GN.cpp)

@<TRIPOS>ATOM
      1 C          53.5780   16.0508   -3.6940 C.2         1 MOL       0.3232
      2 O          54.7603   16.7108   -3.6211 O.2         1 MOL      -0.3774
      3 OA         53.4953   14.7129   -3.4722 O.3         1 MOL      -0.2506
      4 CB         54.5208   13.7653   -3.1448 C.3         1 MOL       0.1113
      5 CG         54.9624   12.9210   -4.2894 C.ar        1 MOL      -0.0130
      6 CD1        54.1999   12.7766   -5.4741 C.ar        1 MOL      -0.0578
      7 CD2        56.2084   12.2562   -4.2061 C.ar        1 MOL      -0.0578
      8 CE1        54.6752   11.9958   -6.5422 C.ar        1 MOL      -0.0685
      9 CE2        56.6822   11.4730   -5.2725 C.ar        1 MOL      -0.0685
     10 CZ         55.9164   11.3394   -6.4435 C.ar        1 MOL      -0.0687
     11 N          52.4095   16.6684   -3.9826 N.am        1 MOL      -0.2403
     12 CA         52.1474   18.0254   -4.3785 C.3         1 MOL       0.1331
     13 P          52.0392   18.1609   -6.0526 P.3         1 MOL       0.0925
     14 OP1        52.9798   19.1246   -6.5713 O.co2       1 MOL      -0.6054
     15 OP2        52.3200   16.9013   -6.7043 O.co2       1 MOL      -0.6054
     16 CB         53.0362   19.1063   -3.6755 C.3         1 MOL       0.0219
     17 CG         52.9107   19.1102   -2.1836 C.ar        1 MOL      -0.0392
     18 CD1        54.0429   18.9733   -1.3482 C.ar        1 MOL      -0.0602
     19 CD2        51.6398   19.2701   -1.5699 C.ar        1 MOL      -0.0602
     20 CE1        53.9213   19.0067    0.0535 C.ar        1 MOL      -0.0686
     21 CE2        51.5142   19.3130   -0.1703 C.ar        1 MOL      -0.0686
     22 CZ         52.6516   19.1767    0.6415 C.ar        1 MOL      -0.0687
     23 N          50.6461   18.6302   -6.4202 N.am        1 MOL      -0.2733
     24 CA         49.9513   18.4335   -7.6283 C.3         1 MOL       0.1230
     25 C          49.9569   19.6831   -8.3866 C.2         1 MOL       0.1994
     26 O          49.4971   20.7102   -7.8969 O.2         1 MOL      -0.3949
     27 CB         48.5138   17.9017   -7.3033 C.3         1 MOL      -0.0136
     28 CG         48.4201   16.6038   -6.4315 C.3         1 MOL      -0.0429
     29 CD1        47.1472   16.6620   -5.5408 C.3         1 MOL      -0.0625
     30 CD2        48.4418   15.3071   -7.2870 C.3         1 MOL      -0.0625
     31 N          50.3788   19.6793   -9.6473 N.am        1 MOL      -0.2701
     32 CA         50.2904   20.7583  -10.5899 C.3         1 MOL       0.0916
     33 C          50.5420   20.2049  -11.9379 C.2         1 MOL       0.0598
     34 O          51.3353   20.8225  -12.8383 O.co2       1 MOL      -0.5666
     35 CB         51.2717   21.8764  -10.1676 C.3         1 MOL      -0.0300
     36 OXT        49.8939   19.0797  -12.3277 O.co2       1 MOL      -0.5666
     37 H1         54.1017   13.1239   -2.3659 H           1 MOL       0.0776
     38 H2         55.3976   14.2639   -2.7244 H           1 MOL       0.0776
     39 H3         53.2972   13.2410   -5.5787 H           1 MOL       0.0557
     40 H4         56.7835   12.3389   -3.3661 H           1 MOL       0.0557
     41 H5         54.1173   11.8929   -7.3904 H           1 MOL       0.0599
     42 H6         57.5839   10.9984   -5.1984 H           1 MOL       0.0599
     43 H7         56.2576   10.7657   -7.2233 H           1 MOL       0.0559
     44 H8         51.6243   16.1073   -3.9291 H           1 MOL       0.1888
     45 H9         51.1318   18.2147   -4.0137 H           1 MOL       0.0803
     46 H10        52.7410   20.1037   -4.0203 H           1 MOL       0.0465
     47 H11        54.0811   18.9842   -3.9759 H           1 MOL       0.0465
     48 H12        54.9739   18.8597   -1.7569 H           1 MOL       0.0557
     49 H13        50.7999   19.3780   -2.1402 H           1 MOL       0.0557
     50 H14        54.7455   18.9066    0.6424 H           1 MOL       0.0599
     51 H15        50.5939   19.4416    0.2579 H           1 MOL       0.0599
     52 H16        52.5626   19.1949    1.6584 H           1 MOL       0.0559
     53 H17        50.1953   19.1164   -5.7540 H           1 MOL       0.1669
     54 H18        50.4271   17.6912   -8.2820 H           1 MOL       0.0753
     55 H19        47.9723   17.7037   -8.2390 H           1 MOL       0.0311
     56 H20        47.9671   18.7038   -6.7894 H           1 MOL       0.0311
     57 H21        49.2876   16.5842   -5.7677 H           1 MOL       0.0298
     58 H22        47.0469   15.7532   -4.9462 H           1 MOL       0.0232
     59 H23        46.2529   16.7661   -6.1617 H           1 MOL       0.0232
     60 H24        47.2054   17.5118   -4.8543 H           1 MOL       0.0232
     61 H25        49.4264   15.1584   -7.7356 H           1 MOL       0.0232
     62 H26        47.6917   15.3605   -8.0864 H           1 MOL       0.0232
     63 H27        48.2240   14.4350   -6.6593 H           1 MOL       0.0232
     64 H28        50.7545   18.8431   -9.9711 H           1 MOL       0.1875
     65 H29        49.2930   21.2041  -10.6076 H           1 MOL       0.0723
     66 H30        51.2261   22.7101  -10.8730 H           1 MOL       0.0270
     67 H31        52.2920   21.4900  -10.1420 H           1 MOL       0.0270
     68 H32        51.0059   22.2548   -9.1758 H           1 MOL       0.0270
@<TRIPOS>BOND
     1    23    24   1
     2    24    27   1
     3    24    25   1
     4    25    26   2
     5    27    28   1
     6    28    29   1
     7    28    30   1
     8    31    32   1
     9    32    35   1
    10    32    33   1
    11    33    34  ar
    12    33    36  ar
    13    25    31  am
    14     1     2   2
    15     1     3   1
    16    11     1  am
    17     3     4   1
    18     4     5   1
    19     5     6  ar
    20     5     7  ar
    21     6     8  ar
    22     7     9  ar
    23     8    10  ar
    24     9    10  ar
    25    12    11   1
    26    13    12   1
    27    12    16   1
    28    13    14  ar
    29    13    15  ar
    30    13    23  am
    31    16    17   1
    32    17    18  ar
    33    17    19  ar
    34    18    20  ar
    35    19    21  ar
    36    20    22  ar
    37    21    22  ar
    38     4    37   1
    39     4    38   1
    40     6    39   1
    41     7    40   1
    42     8    41   1
    43     9    42   1
    44    10    43   1
    45    11    44   1
    46    12    45   1
    47    16    46   1
    48    16    47   1
    49    18    48   1
    50    19    49   1
    51    20    50   1
    52    21    51   1
    53    22    52   1
    54    23    53   1
    55    24    54   1
    56    27    55   1
    57    27    56   1
    58    28    57   1
    59    29    58   1
    60    29    59   1
    61    29    60   1
    62    30    61   1
    63    30    62   1
    64    30    63   1
    65    31    64   1
    66    32    65   1
    67    35    66   1
    68    35    67   1
    69    35    68   1
@<TRIPOS>SUBSTRUCTURE
     1  MOL      1

