@<TRIPOS>MOLECULE
4tmn_ligand_064
    68    69
SMALL
GAST_HUCK
****
This file was generated by PARSER (from files_GN.cpp)

@<TRIPOS>ATOM
      1 C          50.7605   16.4389   -6.3655 C.2         1 MOL       0.3232
      2 O          49.5727   16.8054   -5.8231 O.2         1 MOL      -0.3774
      3 OA         50.8287   15.4371   -7.2811 O.3         1 MOL      -0.2506
      4 CB         49.7364   14.6482   -7.7655 C.3         1 MOL       0.1113
      5 CG         50.2044   13.8209   -8.9034 C.ar        1 MOL      -0.0130
      6 CD1        49.6437   13.9813  -10.1945 C.ar        1 MOL      -0.0578
      7 CD2        51.2332   12.8673   -8.7212 C.ar        1 MOL      -0.0578
      8 CE1        50.1035   13.2103  -11.2777 C.ar        1 MOL      -0.0685
      9 CE2        51.6799   12.0847   -9.8030 C.ar        1 MOL      -0.0685
     10 CZ         51.1222   12.2596  -11.0818 C.ar        1 MOL      -0.0687
     11 N          51.9050   17.1077   -6.1128 N.am        1 MOL      -0.2403
     12 CA         52.0669   18.2984   -5.3307 C.3         1 MOL       0.1331
     13 P          52.5377   19.5149   -6.3766 P.3         1 MOL       0.0925
     14 OP1        53.0019   20.6457   -5.6111 O.co2       1 MOL      -0.6054
     15 OP2        53.6759   19.1862   -7.1955 O.co2       1 MOL      -0.6054
     16 CB         53.0900   18.0154   -4.1816 C.3         1 MOL       0.0219
     17 CG         52.4550   17.4486   -2.9597 C.ar        1 MOL      -0.0392
     18 CD1        52.7789   16.1527   -2.4954 C.ar        1 MOL      -0.0602
     19 CD2        51.5437   18.2327   -2.2128 C.ar        1 MOL      -0.0602
     20 CE1        52.1993   15.6520   -1.3144 C.ar        1 MOL      -0.0686
     21 CE2        50.9685   17.7339   -1.0306 C.ar        1 MOL      -0.0686
     22 CZ         51.2936   16.4405   -0.5832 C.ar        1 MOL      -0.0687
     23 N          51.3880   20.1281   -7.1386 N.am        1 MOL      -0.2733
     24 CA         50.9590   19.8733   -8.4526 C.3         1 MOL       0.1230
     25 C          50.8284   21.1456   -9.1509 C.2         1 MOL       0.1994
     26 O          50.2586   22.0458   -8.5577 O.2         1 MOL      -0.3949
     27 CB         49.6068   19.0807   -8.3964 C.3         1 MOL      -0.0136
     28 CG         48.6940   19.0647   -9.6799 C.3         1 MOL      -0.0429
     29 CD1        49.3835   18.4361  -10.9249 C.3         1 MOL      -0.0625
     30 CD2        47.3497   18.3371   -9.3966 C.3         1 MOL      -0.0625
     31 N          51.2668   21.2734  -10.3999 N.am        1 MOL      -0.2701
     32 CA         51.1282   22.3510  -11.3543 C.3         1 MOL       0.0916
     33 C          52.4545   22.7457  -11.8957 C.2         1 MOL       0.0598
     34 O          52.5581   23.7913  -12.7483 O.co2       1 MOL      -0.5666
     35 CB         50.3215   23.6100  -10.9396 C.3         1 MOL      -0.0300
     36 OXT        53.5203   21.9011  -11.8700 O.co2       1 MOL      -0.5666
     37 H1         48.9194   15.3062   -8.0734 H           1 MOL       0.0776
     38 H2         49.3625   14.0028   -6.9634 H           1 MOL       0.0776
     39 H3         48.9025   14.6706  -10.3621 H           1 MOL       0.0557
     40 H4         51.6554   12.7345   -7.8000 H           1 MOL       0.0557
     41 H5         49.6967   13.3405  -12.2077 H           1 MOL       0.0599
     42 H6         52.4104   11.3867   -9.6601 H           1 MOL       0.0599
     43 H7         51.4558   11.6968  -11.8669 H           1 MOL       0.0559
     44 H8         52.7049   16.7596   -6.5425 H           1 MOL       0.1888
     45 H9         51.1177   18.6209   -4.8932 H           1 MOL       0.0803
     46 H10        53.6002   18.9322   -3.8692 H           1 MOL       0.0465
     47 H11        53.8793   17.3512   -4.5564 H           1 MOL       0.0465
     48 H12        53.4393   15.5693   -3.0093 H           1 MOL       0.0557
     49 H13        51.2976   19.1755   -2.5174 H           1 MOL       0.0557
     50 H14        52.4416   14.7168   -0.9850 H           1 MOL       0.0599
     51 H15        50.3130   18.3087   -0.4985 H           1 MOL       0.0599
     52 H16        50.8732   16.0756    0.2786 H           1 MOL       0.0559
     53 H17        50.8797   20.7525   -6.6455 H           1 MOL       0.1669
     54 H18        51.6655   19.2297   -8.9789 H           1 MOL       0.0753
     55 H19        49.0089   19.4808   -7.5649 H           1 MOL       0.0311
     56 H20        49.8228   18.0330   -8.1398 H           1 MOL       0.0311
     57 H21        48.4508   20.1039   -9.9231 H           1 MOL       0.0298
     58 H22        48.7352   18.5377  -11.7973 H           1 MOL       0.0232
     59 H23        49.5877   17.3751  -10.7638 H           1 MOL       0.0232
     60 H24        50.3218   18.9370  -11.1528 H           1 MOL       0.0232
     61 H25        46.8632   18.7538   -8.5130 H           1 MOL       0.0232
     62 H26        47.5138   17.2694   -9.2326 H           1 MOL       0.0232
     63 H27        46.6718   18.4573  -10.2441 H           1 MOL       0.0232
     64 H28        51.7175   20.4906  -10.7580 H           1 MOL       0.1875
     65 H29        50.5888   21.9119  -12.2030 H           1 MOL       0.0723
     66 H30        50.2640   24.3274  -11.7533 H           1 MOL       0.0270
     67 H31        50.7818   24.0957  -10.0812 H           1 MOL       0.0270
     68 H32        49.3041   23.3243  -10.6789 H           1 MOL       0.0270
@<TRIPOS>BOND
     1    23    24   1
     2    24    27   1
     3    24    25   1
     4    25    26   2
     5    27    28   1
     6    28    29   1
     7    28    30   1
     8    31    32   1
     9    32    35   1
    10    32    33   1
    11    33    34  ar
    12    33    36  ar
    13    25    31  am
    14     1     2   2
    15     1     3   1
    16    11     1  am
    17     3     4   1
    18     4     5   1
    19     5     6  ar
    20     5     7  ar
    21     6     8  ar
    22     7     9  ar
    23     8    10  ar
    24     9    10  ar
    25    12    11   1
    26    13    12   1
    27    12    16   1
    28    13    14  ar
    29    13    15  ar
    30    13    23  am
    31    16    17   1
    32    17    18  ar
    33    17    19  ar
    34    18    20  ar
    35    19    21  ar
    36    20    22  ar
    37    21    22  ar
    38     4    37   1
    39     4    38   1
    40     6    39   1
    41     7    40   1
    42     8    41   1
    43     9    42   1
    44    10    43   1
    45    11    44   1
    46    12    45   1
    47    16    46   1
    48    16    47   1
    49    18    48   1
    50    19    49   1
    51    20    50   1
    52    21    51   1
    53    22    52   1
    54    23    53   1
    55    24    54   1
    56    27    55   1
    57    27    56   1
    58    28    57   1
    59    29    58   1
    60    29    59   1
    61    29    60   1
    62    30    61   1
    63    30    62   1
    64    30    63   1
    65    31    64   1
    66    32    65   1
    67    35    66   1
    68    35    67   1
    69    35    68   1
@<TRIPOS>SUBSTRUCTURE
     1  MOL      1

