@<TRIPOS>MOLECULE
4tmn_ligand_013
    68    69
SMALL
GAST_HUCK
****
This file was generated by PARSER (from files_GN.cpp)

@<TRIPOS>ATOM
      1 C          50.6298   15.4689   -7.1404 C.2         1 MOL       0.3232
      2 O          50.9784   15.5652   -8.4488 O.2         1 MOL      -0.3774
      3 OA         50.2439   14.2788   -6.6147 O.3         1 MOL      -0.2506
      4 CB         50.0723   13.0312   -7.3159 C.3         1 MOL       0.1113
      5 CG         51.1018   12.0694   -6.8621 C.ar        1 MOL      -0.0130
      6 CD1        50.9853   11.4486   -5.5951 C.ar        1 MOL      -0.0578
      7 CD2        52.2335   11.7811   -7.6614 C.ar        1 MOL      -0.0578
      8 CE1        51.9914   10.5829   -5.1273 C.ar        1 MOL      -0.0685
      9 CE2        53.2360   10.9093   -7.1965 C.ar        1 MOL      -0.0685
     10 CZ         53.1188   10.3147   -5.9268 C.ar        1 MOL      -0.0687
     11 N          50.6741   16.5395   -6.3192 N.am        1 MOL      -0.2403
     12 CA         51.1728   17.8435   -6.6605 C.3         1 MOL       0.1331
     13 P          52.4124   18.1751   -5.5875 P.3         1 MOL       0.0925
     14 OP1        53.3080   17.0448   -5.5476 O.co2       1 MOL      -0.6054
     15 OP2        53.1746   19.2909   -6.0869 O.co2       1 MOL      -0.6054
     16 CB         50.0163   18.9073   -6.6863 C.3         1 MOL       0.0219
     17 CG         49.9360   19.6932   -7.9536 C.ar        1 MOL      -0.0392
     18 CD1        48.8184   19.6060   -8.8223 C.ar        1 MOL      -0.0602
     19 CD2        50.9869   20.5764   -8.3005 C.ar        1 MOL      -0.0602
     20 CE1        48.7465   20.3925   -9.9891 C.ar        1 MOL      -0.0686
     21 CE2        50.9221   21.3564   -9.4713 C.ar        1 MOL      -0.0686
     22 CZ         49.7970   21.2735  -10.3088 C.ar        1 MOL      -0.0687
     23 N          51.8818   18.4451   -4.1881 N.am        1 MOL      -0.2733
     24 CA         52.6180   18.3615   -2.9843 C.3         1 MOL       0.1230
     25 C          53.3992   17.1279   -2.8979 C.2         1 MOL       0.1994
     26 O          54.6215   17.1978   -2.9060 O.2         1 MOL      -0.3949
     27 CB         51.6311   18.5416   -1.7855 C.3         1 MOL      -0.0136
     28 CG         52.1733   18.5191   -0.3110 C.3         1 MOL      -0.0429
     29 CD1        52.2329   17.0990    0.3225 C.3         1 MOL      -0.0625
     30 CD2        53.5213   19.2663   -0.1292 C.3         1 MOL      -0.0625
     31 N          52.7719   15.9579   -2.9530 N.am        1 MOL      -0.2701
     32 CA         53.3727   14.6581   -3.0393 C.3         1 MOL       0.0916
     33 C          53.2384   14.1887   -4.4333 C.2         1 MOL       0.0598
     34 O          54.3370   13.9137   -5.1777 O.co2       1 MOL      -0.5666
     35 CB         52.6734   13.6893   -2.0535 C.3         1 MOL      -0.0300
     36 OXT        52.0121   14.1151   -5.0248 O.co2       1 MOL      -0.5666
     37 H1         50.1242   13.1742   -8.4009 H           1 MOL       0.0776
     38 H2         49.0768   12.6356   -7.0955 H           1 MOL       0.0776
     39 H3         50.1775   11.6423   -4.9973 H           1 MOL       0.0557
     40 H4         52.3440   12.2131   -8.5821 H           1 MOL       0.0557
     41 H5         51.9076   10.1526   -4.2037 H           1 MOL       0.0599
     42 H6         54.0531   10.7135   -7.7796 H           1 MOL       0.0599
     43 H7         53.8516    9.6911   -5.5859 H           1 MOL       0.0559
     44 H8         50.3590   16.4097   -5.4063 H           1 MOL       0.1888
     45 H9         51.6494   17.8074   -7.6470 H           1 MOL       0.0803
     46 H10        50.1145   19.6329   -5.8721 H           1 MOL       0.0465
     47 H11        49.0602   18.4053   -6.5042 H           1 MOL       0.0465
     48 H12        48.0481   18.9656   -8.6111 H           1 MOL       0.0557
     49 H13        51.8116   20.6531   -7.7015 H           1 MOL       0.0557
     50 H14        47.9359   20.3204  -10.6047 H           1 MOL       0.0599
     51 H15        51.6907   21.9827   -9.7122 H           1 MOL       0.0599
     52 H16        49.7427   21.8462  -11.1540 H           1 MOL       0.0559
     53 H17        51.0970   18.9596   -4.1549 H           1 MOL       0.1669
     54 H18        53.2949   19.2269   -2.9660 H           1 MOL       0.0753
     55 H19        50.8406   17.7891   -1.8631 H           1 MOL       0.0311
     56 H20        51.1323   19.5094   -1.9240 H           1 MOL       0.0311
     57 H21        51.4355   19.0715    0.2830 H           1 MOL       0.0298
     58 H22        52.3904   17.1792    1.4025 H           1 MOL       0.0232
     59 H23        53.0523   16.5111   -0.0960 H           1 MOL       0.0232
     60 H24        51.2936   16.5634    0.1600 H           1 MOL       0.0232
     61 H25        53.4457   20.2891   -0.5073 H           1 MOL       0.0232
     62 H26        54.3277   18.7501   -0.6560 H           1 MOL       0.0232
     63 H27        53.7794   19.3103    0.9319 H           1 MOL       0.0232
     64 H28        51.8055   15.9892   -3.0410 H           1 MOL       0.1875
     65 H29        54.4347   14.6918   -2.7677 H           1 MOL       0.0723
     66 H30        53.1024   12.6858   -2.1384 H           1 MOL       0.0270
     67 H31        51.5999   13.6302   -2.2606 H           1 MOL       0.0270
     68 H32        52.8126   14.0367   -1.0294 H           1 MOL       0.0270
@<TRIPOS>BOND
     1    23    24   1
     2    24    27   1
     3    24    25   1
     4    25    26   2
     5    27    28   1
     6    28    29   1
     7    28    30   1
     8    31    32   1
     9    32    35   1
    10    32    33   1
    11    33    34  ar
    12    33    36  ar
    13    25    31  am
    14     1     2   2
    15     1     3   1
    16    11     1  am
    17     3     4   1
    18     4     5   1
    19     5     6  ar
    20     5     7  ar
    21     6     8  ar
    22     7     9  ar
    23     8    10  ar
    24     9    10  ar
    25    12    11   1
    26    13    12   1
    27    12    16   1
    28    13    14  ar
    29    13    15  ar
    30    13    23  am
    31    16    17   1
    32    17    18  ar
    33    17    19  ar
    34    18    20  ar
    35    19    21  ar
    36    20    22  ar
    37    21    22  ar
    38     4    37   1
    39     4    38   1
    40     6    39   1
    41     7    40   1
    42     8    41   1
    43     9    42   1
    44    10    43   1
    45    11    44   1
    46    12    45   1
    47    16    46   1
    48    16    47   1
    49    18    48   1
    50    19    49   1
    51    20    50   1
    52    21    51   1
    53    22    52   1
    54    23    53   1
    55    24    54   1
    56    27    55   1
    57    27    56   1
    58    28    57   1
    59    29    58   1
    60    29    59   1
    61    29    60   1
    62    30    61   1
    63    30    62   1
    64    30    63   1
    65    31    64   1
    66    32    65   1
    67    35    66   1
    68    35    67   1
    69    35    68   1
@<TRIPOS>SUBSTRUCTURE
     1  MOL      1

