@<TRIPOS>MOLECULE
4tmn_ligand_029
    68    69
SMALL
GAST_HUCK
****
This file was generated by PARSER (from files_GN.cpp)

@<TRIPOS>ATOM
      1 C          49.8551   16.5440   -6.0996 C.2         1 MOL       0.3232
      2 O          50.8522   15.8154   -6.6608 O.2         1 MOL      -0.3774
      3 OA         48.5616   16.1336   -6.1647 O.3         1 MOL      -0.2506
      4 CB         48.0529   14.9214   -6.7440 C.3         1 MOL       0.1113
      5 CG         47.5240   15.2037   -8.0983 C.ar        1 MOL      -0.0130
      6 CD1        48.4139   15.2995   -9.1962 C.ar        1 MOL      -0.0578
      7 CD2        46.1338   15.3591   -8.3396 C.ar        1 MOL      -0.0578
      8 CE1        47.9380   15.5424  -10.4933 C.ar        1 MOL      -0.0685
      9 CE2        45.6561   15.6043   -9.6385 C.ar        1 MOL      -0.0685
     10 CZ         46.5560   15.6887  -10.7204 C.ar        1 MOL      -0.0687
     11 N          50.0788   17.7494   -5.5262 N.am        1 MOL      -0.2403
     12 CA         51.2827   18.5343   -5.5485 C.3         1 MOL       0.1331
     13 P          51.5914   19.0023   -7.1323 P.3         1 MOL       0.0925
     14 OP1        52.9342   19.5047   -7.2575 O.co2       1 MOL      -0.6054
     15 OP2        51.4713   17.8849   -8.0372 O.co2       1 MOL      -0.6054
     16 CB         52.5234   17.9318   -4.8122 C.3         1 MOL       0.0219
     17 CG         52.2830   17.5325   -3.3968 C.ar        1 MOL      -0.0392
     18 CD1        52.8851   16.3643   -2.8549 C.ar        1 MOL      -0.0602
     19 CD2        51.5351   18.3619   -2.5235 C.ar        1 MOL      -0.0602
     20 CE1        52.7232   16.0353   -1.4942 C.ar        1 MOL      -0.0686
     21 CE2        51.3650   18.0293   -1.1700 C.ar        1 MOL      -0.0686
     22 CZ         51.9660   16.8704   -0.6469 C.ar        1 MOL      -0.0687
     23 N          50.6721   20.1660   -7.5072 N.am        1 MOL      -0.2733
     24 CA         50.1941   20.5466   -8.7815 C.3         1 MOL       0.1230
     25 C          49.0508   19.7280   -9.2027 C.2         1 MOL       0.1994
     26 O          49.0898   18.5037   -9.0759 O.2         1 MOL      -0.3949
     27 CB         51.2938   20.6977   -9.8955 C.3         1 MOL      -0.0136
     28 CG         51.2158   21.9414  -10.8531 C.3         1 MOL      -0.0429
     29 CD1        50.6280   21.6179  -12.2595 C.3         1 MOL      -0.0625
     30 CD2        50.4950   23.1687  -10.2226 C.3         1 MOL      -0.0625
     31 N          47.9387   20.3088   -9.6337 N.am        1 MOL      -0.2701
     32 CA         46.6693   19.6874   -9.9048 C.3         1 MOL       0.0916
     33 C          46.6571   18.7466  -11.0538 C.2         1 MOL       0.0598
     34 O          47.7893   18.3125  -11.6539 O.co2       1 MOL      -0.5666
     35 CB         45.6345   20.8152  -10.1240 C.3         1 MOL      -0.0300
     36 OXT        45.4804   18.2839  -11.5242 O.co2       1 MOL      -0.5666
     37 H1         47.2742   14.5453   -6.0765 H           1 MOL       0.0776
     38 H2         48.8186   14.1437   -6.8216 H           1 MOL       0.0776
     39 H3         49.4167   15.1832   -9.0521 H           1 MOL       0.0557
     40 H4         45.4608   15.2948   -7.5689 H           1 MOL       0.0557
     41 H5         48.5928   15.5957  -11.2782 H           1 MOL       0.0599
     42 H6         44.6484   15.7085   -9.8086 H           1 MOL       0.0599
     43 H7         46.2084   15.8563  -11.6670 H           1 MOL       0.0559
     44 H8         49.3151   18.1770   -5.1068 H           1 MOL       0.1888
     45 H9         51.0436   19.4661   -5.0260 H           1 MOL       0.0803
     46 H10        53.3150   18.6854   -4.7855 H           1 MOL       0.0465
     47 H11        52.9183   17.0917   -5.3927 H           1 MOL       0.0465
     48 H12        53.4527   15.7418   -3.4369 H           1 MOL       0.0557
     49 H13        51.1161   19.2182   -2.8722 H           1 MOL       0.0557
     50 H14        53.1714   15.1981   -1.0983 H           1 MOL       0.0599
     51 H15        50.8248   18.6487   -0.5602 H           1 MOL       0.0599
     52 H16        51.8583   16.6437    0.3453 H           1 MOL       0.0559
     53 H17        50.5076   20.7942   -6.8252 H           1 MOL       0.1669
     54 H18        49.8384   21.5745   -8.6030 H           1 MOL       0.0753
     55 H19        51.3298   19.7851  -10.5057 H           1 MOL       0.0311
     56 H20        52.2704   20.7659   -9.4080 H           1 MOL       0.0311
     57 H21        52.2509   22.2597  -11.0431 H           1 MOL       0.0298
     58 H22        50.6934   22.5000  -12.9105 H           1 MOL       0.0232
     59 H23        49.5754   21.3280  -12.1854 H           1 MOL       0.0232
     60 H24        51.1881   20.8012  -12.7333 H           1 MOL       0.0232
     61 H25        50.7578   23.2527   -9.1717 H           1 MOL       0.0232
     62 H26        49.4111   23.0666  -10.2973 H           1 MOL       0.0232
     63 H27        50.7839   24.1022  -10.7320 H           1 MOL       0.0232
     64 H28        47.9626   21.2786   -9.7151 H           1 MOL       0.1875
     65 H29        46.3726   19.1254   -9.0106 H           1 MOL       0.0723
     66 H30        44.6244   20.4039  -10.2107 H           1 MOL       0.0270
     67 H31        45.8710   21.3760  -11.0353 H           1 MOL       0.0270
     68 H32        45.6503   21.5053   -9.2758 H           1 MOL       0.0270
@<TRIPOS>BOND
     1    23    24   1
     2    24    27   1
     3    24    25   1
     4    25    26   2
     5    27    28   1
     6    28    29   1
     7    28    30   1
     8    31    32   1
     9    32    35   1
    10    32    33   1
    11    33    34  ar
    12    33    36  ar
    13    25    31  am
    14     1     2   2
    15     1     3   1
    16    11     1  am
    17     3     4   1
    18     4     5   1
    19     5     6  ar
    20     5     7  ar
    21     6     8  ar
    22     7     9  ar
    23     8    10  ar
    24     9    10  ar
    25    12    11   1
    26    13    12   1
    27    12    16   1
    28    13    14  ar
    29    13    15  ar
    30    13    23  am
    31    16    17   1
    32    17    18  ar
    33    17    19  ar
    34    18    20  ar
    35    19    21  ar
    36    20    22  ar
    37    21    22  ar
    38     4    37   1
    39     4    38   1
    40     6    39   1
    41     7    40   1
    42     8    41   1
    43     9    42   1
    44    10    43   1
    45    11    44   1
    46    12    45   1
    47    16    46   1
    48    16    47   1
    49    18    48   1
    50    19    49   1
    51    20    50   1
    52    21    51   1
    53    22    52   1
    54    23    53   1
    55    24    54   1
    56    27    55   1
    57    27    56   1
    58    28    57   1
    59    29    58   1
    60    29    59   1
    61    29    60   1
    62    30    61   1
    63    30    62   1
    64    30    63   1
    65    31    64   1
    66    32    65   1
    67    35    66   1
    68    35    67   1
    69    35    68   1
@<TRIPOS>SUBSTRUCTURE
     1  MOL      1

