@<TRIPOS>MOLECULE
4tmn_ligand_051
    68    69
SMALL
GAST_HUCK
****
This file was generated by PARSER (from files_GN.cpp)

@<TRIPOS>ATOM
      1 C          51.0605   20.4681   -8.0239 C.2         1 MOL       0.3232
      2 O          49.8812   20.9250   -7.5368 O.2         1 MOL      -0.3774
      3 OA         52.1071   20.1918   -7.1924 O.3         1 MOL      -0.2506
      4 CB         52.0935   20.2222   -5.7573 C.3         1 MOL       0.1113
      5 CG         52.6326   18.9830   -5.1385 C.ar        1 MOL      -0.0130
      6 CD1        53.4555   19.0474   -3.9868 C.ar        1 MOL      -0.0578
      7 CD2        52.2598   17.7086   -5.6282 C.ar        1 MOL      -0.0578
      8 CE1        53.9023   17.8719   -3.3532 C.ar        1 MOL      -0.0685
      9 CE2        52.7202   16.5326   -5.0044 C.ar        1 MOL      -0.0685
     10 CZ         53.5411   16.6144   -3.8658 C.ar        1 MOL      -0.0687
     11 N          51.2281   20.2922   -9.3542 N.am        1 MOL      -0.2403
     12 CA         50.2161   20.4554  -10.3703 C.3         1 MOL       0.1331
     13 P          49.1775   19.1363  -10.4010 P.3         1 MOL       0.0925
     14 OP1        49.9034   17.9186  -10.6524 O.co2       1 MOL      -0.6054
     15 OP2        48.5054   18.9946   -9.1353 O.co2       1 MOL      -0.6054
     16 CB         50.9098   20.7137  -11.7522 C.3         1 MOL       0.0219
     17 CG         51.2446   22.1468  -11.9755 C.ar        1 MOL      -0.0392
     18 CD1        50.2188   23.0534  -12.3393 C.ar        1 MOL      -0.0602
     19 CD2        52.5676   22.6341  -11.8525 C.ar        1 MOL      -0.0602
     20 CE1        50.5055   24.4102  -12.5713 C.ar        1 MOL      -0.0686
     21 CE2        52.8495   23.9982  -12.0614 C.ar        1 MOL      -0.0686
     22 CZ         51.8201   24.8835  -12.4231 C.ar        1 MOL      -0.0687
     23 N          48.1061   19.3385  -11.4553 N.am        1 MOL      -0.2733
     24 CA         47.1732   18.3936  -11.9175 C.3         1 MOL       0.1230
     25 C          47.4853   17.9185  -13.2706 C.2         1 MOL       0.1994
     26 O          46.6390   17.2763  -13.8791 O.2         1 MOL      -0.3949
     27 CB         45.7313   18.9718  -11.6962 C.3         1 MOL      -0.0136
     28 CG         45.4295   20.4601  -12.0842 C.3         1 MOL      -0.0429
     29 CD1        45.6255   20.7552  -13.5949 C.3         1 MOL      -0.0625
     30 CD2        43.9957   20.8697  -11.6395 C.3         1 MOL      -0.0625
     31 N          48.7290   17.9937  -13.7459 N.am        1 MOL      -0.2701
     32 CA         49.2839   17.4911  -14.9727 C.3         1 MOL       0.0916
     33 C          48.6815   18.1492  -16.1522 C.2         1 MOL       0.0598
     34 O          49.4168   18.9665  -16.9395 O.co2       1 MOL      -0.5666
     35 CB         49.2667   15.9427  -15.0831 C.3         1 MOL      -0.0300
     36 OXT        47.3864   17.9464  -16.4795 O.co2       1 MOL      -0.5666
     37 H1         51.0789   20.3633   -5.3769 H           1 MOL       0.0776
     38 H2         52.6856   21.0890   -5.4579 H           1 MOL       0.0776
     39 H3         53.7190   19.9515   -3.5875 H           1 MOL       0.0557
     40 H4         51.6507   17.6271   -6.4461 H           1 MOL       0.0557
     41 H5         54.4836   17.9309   -2.5141 H           1 MOL       0.0599
     42 H6         52.4536   15.6178   -5.3760 H           1 MOL       0.0599
     43 H7         53.8695   15.7611   -3.4083 H           1 MOL       0.0559
     44 H8         52.1061   19.9955   -9.6411 H           1 MOL       0.1888
     45 H9         49.5970   21.3242  -10.1243 H           1 MOL       0.0803
     46 H10        50.2816   20.4067  -12.5932 H           1 MOL       0.0465
     47 H11        51.8060   20.0954  -11.8227 H           1 MOL       0.0465
     48 H12        49.2560   22.7268  -12.4499 H           1 MOL       0.0557
     49 H13        53.3322   22.0025  -11.6037 H           1 MOL       0.0557
     50 H14        49.7591   25.0502  -12.8502 H           1 MOL       0.0599
     51 H15        53.8039   24.3497  -11.9586 H           1 MOL       0.0599
     52 H16        52.0307   25.8694  -12.5862 H           1 MOL       0.0559
     53 H17        48.1084   20.1647  -11.8975 H           1 MOL       0.1669
     54 H18        47.2248   17.4892  -11.2966 H           1 MOL       0.0753
     55 H19        45.5351   18.8853  -10.6238 H           1 MOL       0.0311
     56 H20        45.0028   18.3256  -12.1925 H           1 MOL       0.0311
     57 H21        46.1179   21.1058  -11.5308 H           1 MOL       0.0298
     58 H22        45.3844   21.7985  -13.8102 H           1 MOL       0.0232
     59 H23        44.9787   20.1149  -14.1975 H           1 MOL       0.0232
     60 H24        46.6624   20.5872  -13.8871 H           1 MOL       0.0232
     61 H25        43.8719   20.7219  -10.5636 H           1 MOL       0.0232
     62 H26        43.2422   20.2764  -12.1618 H           1 MOL       0.0232
     63 H27        43.8154   21.9256  -11.8529 H           1 MOL       0.0232
     64 H28        49.3672   18.4510  -13.1805 H           1 MOL       0.1875
     65 H29        50.3400   17.7769  -14.9452 H           1 MOL       0.0723
     66 H30        49.7926   15.6203  -15.9861 H           1 MOL       0.0270
     67 H31        48.2445   15.5644  -15.1246 H           1 MOL       0.0270
     68 H32        49.7710   15.4990  -14.2223 H           1 MOL       0.0270
@<TRIPOS>BOND
     1    23    24   1
     2    24    27   1
     3    24    25   1
     4    25    26   2
     5    27    28   1
     6    28    29   1
     7    28    30   1
     8    31    32   1
     9    32    35   1
    10    32    33   1
    11    33    34  ar
    12    33    36  ar
    13    25    31  am
    14     1     2   2
    15     1     3   1
    16    11     1  am
    17     3     4   1
    18     4     5   1
    19     5     6  ar
    20     5     7  ar
    21     6     8  ar
    22     7     9  ar
    23     8    10  ar
    24     9    10  ar
    25    12    11   1
    26    13    12   1
    27    12    16   1
    28    13    14  ar
    29    13    15  ar
    30    13    23  am
    31    16    17   1
    32    17    18  ar
    33    17    19  ar
    34    18    20  ar
    35    19    21  ar
    36    20    22  ar
    37    21    22  ar
    38     4    37   1
    39     4    38   1
    40     6    39   1
    41     7    40   1
    42     8    41   1
    43     9    42   1
    44    10    43   1
    45    11    44   1
    46    12    45   1
    47    16    46   1
    48    16    47   1
    49    18    48   1
    50    19    49   1
    51    20    50   1
    52    21    51   1
    53    22    52   1
    54    23    53   1
    55    24    54   1
    56    27    55   1
    57    27    56   1
    58    28    57   1
    59    29    58   1
    60    29    59   1
    61    29    60   1
    62    30    61   1
    63    30    62   1
    64    30    63   1
    65    31    64   1
    66    32    65   1
    67    35    66   1
    68    35    67   1
    69    35    68   1
@<TRIPOS>SUBSTRUCTURE
     1  MOL      1

