@<TRIPOS>MOLECULE
4tmn_ligand_024
    68    69
SMALL
GAST_HUCK
****
This file was generated by PARSER (from files_GN.cpp)

@<TRIPOS>ATOM
      1 C          51.4748   19.8623   -7.3498 C.2         1 MOL       0.3232
      2 O          50.2118   19.9737   -6.8708 O.2         1 MOL      -0.3774
      3 OA         52.5281   19.8099   -6.4907 O.3         1 MOL      -0.2506
      4 CB         52.4638   19.8040   -5.0532 C.3         1 MOL       0.1113
      5 CG         52.9685   18.5385   -4.4614 C.ar        1 MOL      -0.0130
      6 CD1        53.5863   18.5512   -3.1885 C.ar        1 MOL      -0.0578
      7 CD2        52.7721   17.2954   -5.1071 C.ar        1 MOL      -0.0578
      8 CE1        54.0203   17.3559   -2.5898 C.ar        1 MOL      -0.0685
      9 CE2        53.2131   16.0973   -4.5117 C.ar        1 MOL      -0.0685
     10 CZ         53.8370   16.1285   -3.2511 C.ar        1 MOL      -0.0687
     11 N          51.7257   19.7535   -8.6764 N.am        1 MOL      -0.2403
     12 CA         50.7714   19.7269   -9.7545 C.3         1 MOL       0.1331
     13 P          50.1873   21.2584  -10.1144 P.3         1 MOL       0.0925
     14 OP1        49.6968   21.9144   -8.9245 O.co2       1 MOL      -0.6054
     15 OP2        51.2553   22.1087  -10.5847 O.co2       1 MOL      -0.6054
     16 CB         49.6641   18.6301   -9.5721 C.3         1 MOL       0.0219
     17 CG         50.0829   17.2741  -10.0420 C.ar        1 MOL      -0.0392
     18 CD1        49.6368   16.7865  -11.2920 C.ar        1 MOL      -0.0602
     19 CD2        50.9209   16.4481   -9.2567 C.ar        1 MOL      -0.0602
     20 CE1        50.0192   15.5137  -11.7497 C.ar        1 MOL      -0.0686
     21 CE2        51.2910   15.1656   -9.7071 C.ar        1 MOL      -0.0686
     22 CZ         50.8422   14.6967  -10.9538 C.ar        1 MOL      -0.0687
     23 N          49.0432   21.3460  -11.1043 N.am        1 MOL      -0.2733
     24 CA         49.0088   20.8531  -12.4254 C.3         1 MOL       0.1230
     25 C          49.7376   21.7830  -13.2866 C.2         1 MOL       0.1994
     26 O          49.1553   22.7313  -13.7941 O.2         1 MOL      -0.3949
     27 CB         47.5062   20.6265  -12.8089 C.3         1 MOL      -0.0136
     28 CG         47.2069   19.7989  -14.1028 C.3         1 MOL      -0.0429
     29 CD1        47.7947   18.3609  -14.0788 C.3         1 MOL      -0.0625
     30 CD2        45.6738   19.7107  -14.3572 C.3         1 MOL      -0.0625
     31 N          51.0661   21.6963  -13.3268 N.am        1 MOL      -0.2701
     32 CA         52.0146   22.6100  -13.8967 C.3         1 MOL       0.0916
     33 C          51.9667   23.9657  -13.2960 C.2         1 MOL       0.0598
     34 O          52.9928   24.8213  -13.4776 O.co2       1 MOL      -0.5666
     35 CB         51.9714   22.6519  -15.4456 C.3         1 MOL      -0.0300
     36 OXT        50.9347   24.3876  -12.5217 O.co2       1 MOL      -0.5666
     37 H1         51.4428   19.9527   -4.6924 H           1 MOL       0.0776
     38 H2         53.0605   20.6501   -4.7081 H           1 MOL       0.0776
     39 H3         53.7184   19.4331   -2.6870 H           1 MOL       0.0557
     40 H4         52.3051   17.2440   -6.0130 H           1 MOL       0.0557
     41 H5         54.4646   17.3758   -1.6683 H           1 MOL       0.0599
     42 H6         53.0725   15.2064   -4.9915 H           1 MOL       0.0599
     43 H7         54.1521   15.2585   -2.8152 H           1 MOL       0.0559
     44 H8         52.6555   19.6147   -8.9179 H           1 MOL       0.1888
     45 H9         51.3504   19.4588  -10.6410 H           1 MOL       0.0803
     46 H10        48.7589   18.9214  -10.1100 H           1 MOL       0.0465
     47 H11        49.3596   18.5599   -8.5290 H           1 MOL       0.0465
     48 H12        49.0335   17.3572  -11.8807 H           1 MOL       0.0557
     49 H13        51.2574   16.7710   -8.3449 H           1 MOL       0.0557
     50 H14        49.6912   15.1774  -12.6581 H           1 MOL       0.0599
     51 H15        51.8782   14.5683   -9.1253 H           1 MOL       0.0599
     52 H16        51.1124   13.7688  -11.2815 H           1 MOL       0.0559
     53 H17        48.3889   21.9776  -10.8838 H           1 MOL       0.1669
     54 H18        49.4887   19.8730  -12.4814 H           1 MOL       0.0753
     55 H19        47.0359   21.6111  -12.9101 H           1 MOL       0.0311
     56 H20        47.0079   20.1293  -11.9708 H           1 MOL       0.0311
     57 H21        47.6516   20.3194  -14.9562 H           1 MOL       0.0298
     58 H22        47.5606   17.8381  -15.0081 H           1 MOL       0.0232
     59 H23        47.3715   17.7903  -13.2520 H           1 MOL       0.0232
     60 H24        48.8789   18.3844  -13.9714 H           1 MOL       0.0232
     61 H25        45.2444   20.7082  -14.4663 H           1 MOL       0.0232
     62 H26        45.1724   19.2073  -13.5270 H           1 MOL       0.0232
     63 H27        45.4715   19.1553  -15.2747 H           1 MOL       0.0232
     64 H28        51.4493   20.9305  -12.8684 H           1 MOL       0.1875
     65 H29        52.9936   22.2000  -13.6291 H           1 MOL       0.0723
     66 H30        52.8255   23.2122  -15.8328 H           1 MOL       0.0270
     67 H31        51.0571   23.1273  -15.8020 H           1 MOL       0.0270
     68 H32        52.0198   21.6395  -15.8515 H           1 MOL       0.0270
@<TRIPOS>BOND
     1    23    24   1
     2    24    27   1
     3    24    25   1
     4    25    26   2
     5    27    28   1
     6    28    29   1
     7    28    30   1
     8    31    32   1
     9    32    35   1
    10    32    33   1
    11    33    34  ar
    12    33    36  ar
    13    25    31  am
    14     1     2   2
    15     1     3   1
    16    11     1  am
    17     3     4   1
    18     4     5   1
    19     5     6  ar
    20     5     7  ar
    21     6     8  ar
    22     7     9  ar
    23     8    10  ar
    24     9    10  ar
    25    12    11   1
    26    13    12   1
    27    12    16   1
    28    13    14  ar
    29    13    15  ar
    30    13    23  am
    31    16    17   1
    32    17    18  ar
    33    17    19  ar
    34    18    20  ar
    35    19    21  ar
    36    20    22  ar
    37    21    22  ar
    38     4    37   1
    39     4    38   1
    40     6    39   1
    41     7    40   1
    42     8    41   1
    43     9    42   1
    44    10    43   1
    45    11    44   1
    46    12    45   1
    47    16    46   1
    48    16    47   1
    49    18    48   1
    50    19    49   1
    51    20    50   1
    52    21    51   1
    53    22    52   1
    54    23    53   1
    55    24    54   1
    56    27    55   1
    57    27    56   1
    58    28    57   1
    59    29    58   1
    60    29    59   1
    61    29    60   1
    62    30    61   1
    63    30    62   1
    64    30    63   1
    65    31    64   1
    66    32    65   1
    67    35    66   1
    68    35    67   1
    69    35    68   1
@<TRIPOS>SUBSTRUCTURE
     1  MOL      1

