@<TRIPOS>MOLECULE
4tmn_ligand_065
    68    69
SMALL
GAST_HUCK
****
This file was generated by PARSER (from files_GN.cpp)

@<TRIPOS>ATOM
      1 C          49.2984   16.7304   -6.7598 C.2         1 MOL       0.3232
      2 O          49.8688   15.9356   -7.6971 O.2         1 MOL      -0.3774
      3 OA         48.0997   16.3999   -6.2105 O.3         1 MOL      -0.2506
      4 CB         47.2601   15.2734   -6.5088 C.3         1 MOL       0.1113
      5 CG         46.0342   15.6592   -7.2601 C.ar        1 MOL      -0.0130
      6 CD1        45.1990   14.6444   -7.7843 C.ar        1 MOL      -0.0578
      7 CD2        45.6681   17.0091   -7.4772 C.ar        1 MOL      -0.0578
      8 CE1        44.0296   14.9699   -8.4984 C.ar        1 MOL      -0.0685
      9 CE2        44.4956   17.3368   -8.1829 C.ar        1 MOL      -0.0685
     10 CZ         43.6716   16.3167   -8.6890 C.ar        1 MOL      -0.0687
     11 N          49.7894   17.9556   -6.4599 N.am        1 MOL      -0.2403
     12 CA         50.8814   18.6502   -7.0873 C.3         1 MOL       0.1331
     13 P          50.6239   18.9470   -8.7212 P.3         1 MOL       0.0925
     14 OP1        51.5964   19.8941   -9.2197 O.co2       1 MOL      -0.6054
     15 OP2        50.8533   17.7255   -9.4554 O.co2       1 MOL      -0.6054
     16 CB         52.2742   17.9951   -6.8130 C.3         1 MOL       0.0219
     17 CG         52.6782   17.9364   -5.3825 C.ar        1 MOL      -0.0392
     18 CD1        52.8530   16.6902   -4.7265 C.ar        1 MOL      -0.0602
     19 CD2        52.9737   19.1249   -4.6706 C.ar        1 MOL      -0.0602
     20 CE1        53.3200   16.6371   -3.3992 C.ar        1 MOL      -0.0686
     21 CE2        53.4411   19.0695   -3.3430 C.ar        1 MOL      -0.0686
     22 CZ         53.6156   17.8259   -2.7068 C.ar        1 MOL      -0.0687
     23 N          49.1983   19.3479   -9.0740 N.am        1 MOL      -0.2733
     24 CA         48.7766   19.9649  -10.2747 C.3         1 MOL       0.1230
     25 C          47.3253   20.1836  -10.3020 C.2         1 MOL       0.1994
     26 O          46.6368   19.9415   -9.3105 O.2         1 MOL      -0.3949
     27 CB         49.3083   19.2587  -11.5841 C.3         1 MOL      -0.0136
     28 CG         48.7404   17.8622  -12.0481 C.3         1 MOL      -0.0429
     29 CD1        48.0283   17.0060  -10.9628 C.3         1 MOL      -0.0625
     30 CD2        47.8415   17.9870  -13.3115 C.3         1 MOL      -0.0625
     31 N          46.7632   20.6948  -11.3932 N.am        1 MOL      -0.2701
     32 CA         45.3643   20.9163  -11.6351 C.3         1 MOL       0.0916
     33 C          44.6217   19.6329  -11.7367 C.2         1 MOL       0.0598
     34 O          44.0681   19.1989  -12.8917 O.co2       1 MOL      -0.5666
     35 CB         45.2227   21.7883  -12.9113 C.3         1 MOL      -0.0300
     36 OXT        44.4435   18.8606  -10.6396 O.co2       1 MOL      -0.5666
     37 H1         46.9604   14.8070   -5.5671 H           1 MOL       0.0776
     38 H2         47.8130   14.5314   -7.0932 H           1 MOL       0.0776
     39 H3         45.4357   13.6584   -7.6479 H           1 MOL       0.0557
     40 H4         46.2482   17.7718   -7.1233 H           1 MOL       0.0557
     41 H5         43.4397   14.2269   -8.8763 H           1 MOL       0.0599
     42 H6         44.2406   18.3159   -8.3222 H           1 MOL       0.0599
     43 H7         42.8189   16.5528   -9.1985 H           1 MOL       0.0559
     44 H8         49.3091   18.4496   -5.7746 H           1 MOL       0.1888
     45 H9         50.8944   19.6340   -6.6112 H           1 MOL       0.0803
     46 H10        53.0535   18.5502   -7.3440 H           1 MOL       0.0465
     47 H11        52.2857   16.9859   -7.2372 H           1 MOL       0.0465
     48 H12        52.6525   15.8123   -5.2143 H           1 MOL       0.0557
     49 H13        52.8783   20.0380   -5.1251 H           1 MOL       0.0557
     50 H14        53.4629   15.7316   -2.9451 H           1 MOL       0.0599
     51 H15        53.6610   19.9332   -2.8409 H           1 MOL       0.0599
     52 H16        53.9665   17.7842   -1.7453 H           1 MOL       0.0559
     53 H17        48.5279   18.9105   -8.5779 H           1 MOL       0.1669
     54 H18        49.2067   20.9762  -10.2693 H           1 MOL       0.0753
     55 H19        50.3916   19.1546  -11.4711 H           1 MOL       0.0311
     56 H20        49.1910   19.9832  -12.4032 H           1 MOL       0.0311
     57 H21        49.6065   17.2699  -12.3675 H           1 MOL       0.0298
     58 H22        47.7877   16.0165  -11.3659 H           1 MOL       0.0232
     59 H23        47.0980   17.4801  -10.6425 H           1 MOL       0.0232
     60 H24        48.6802   16.8658  -10.0979 H           1 MOL       0.0232
     61 H25        48.3947   18.4692  -14.1242 H           1 MOL       0.0232
     62 H26        46.9552   18.5840  -13.0896 H           1 MOL       0.0232
     63 H27        47.5229   17.0013  -13.6599 H           1 MOL       0.0232
     64 H28        47.3686   20.9398  -12.1151 H           1 MOL       0.1875
     65 H29        44.9488   21.4888  -10.8003 H           1 MOL       0.0723
     66 H30        44.1702   22.0172  -13.0973 H           1 MOL       0.0270
     67 H31        45.6300   21.2750  -13.7866 H           1 MOL       0.0270
     68 H32        45.7635   22.7328  -12.7900 H           1 MOL       0.0270
@<TRIPOS>BOND
     1    23    24   1
     2    24    27   1
     3    24    25   1
     4    25    26   2
     5    27    28   1
     6    28    29   1
     7    28    30   1
     8    31    32   1
     9    32    35   1
    10    32    33   1
    11    33    34  ar
    12    33    36  ar
    13    25    31  am
    14     1     2   2
    15     1     3   1
    16    11     1  am
    17     3     4   1
    18     4     5   1
    19     5     6  ar
    20     5     7  ar
    21     6     8  ar
    22     7     9  ar
    23     8    10  ar
    24     9    10  ar
    25    12    11   1
    26    13    12   1
    27    12    16   1
    28    13    14  ar
    29    13    15  ar
    30    13    23  am
    31    16    17   1
    32    17    18  ar
    33    17    19  ar
    34    18    20  ar
    35    19    21  ar
    36    20    22  ar
    37    21    22  ar
    38     4    37   1
    39     4    38   1
    40     6    39   1
    41     7    40   1
    42     8    41   1
    43     9    42   1
    44    10    43   1
    45    11    44   1
    46    12    45   1
    47    16    46   1
    48    16    47   1
    49    18    48   1
    50    19    49   1
    51    20    50   1
    52    21    51   1
    53    22    52   1
    54    23    53   1
    55    24    54   1
    56    27    55   1
    57    27    56   1
    58    28    57   1
    59    29    58   1
    60    29    59   1
    61    29    60   1
    62    30    61   1
    63    30    62   1
    64    30    63   1
    65    31    64   1
    66    32    65   1
    67    35    66   1
    68    35    67   1
    69    35    68   1
@<TRIPOS>SUBSTRUCTURE
     1  MOL      1

