@<TRIPOS>MOLECULE
4tmn_ligand_011
    68    69
SMALL
GAST_HUCK
****
This file was generated by PARSER (from files_GN.cpp)

@<TRIPOS>ATOM
      1 C          49.7223   21.2535  -12.3279 C.2         1 MOL       0.3232
      2 O          50.7084   20.3962  -12.6836 O.2         1 MOL      -0.3774
      3 OA         49.2992   22.2075  -13.1964 O.3         1 MOL      -0.2506
      4 CB         49.7734   22.4388  -14.5302 C.3         1 MOL       0.1113
      5 CG         49.5845   21.2897  -15.4587 C.ar        1 MOL      -0.0130
      6 CD1        50.4280   21.1513  -16.5845 C.ar        1 MOL      -0.0578
      7 CD2        48.5446   20.3439  -15.2795 C.ar        1 MOL      -0.0578
      8 CE1        50.2607   20.0847  -17.4874 C.ar        1 MOL      -0.0685
      9 CE2        48.3689   19.2877  -16.1946 C.ar        1 MOL      -0.0685
     10 CZ         49.2332   19.1501  -17.2930 C.ar        1 MOL      -0.0687
     11 N          49.0663   21.1498  -11.1454 N.am        1 MOL      -0.2403
     12 CA         49.2055   20.1126  -10.1601 C.3         1 MOL       0.1331
     13 P          50.4798   20.4498   -9.1193 P.3         1 MOL       0.0925
     14 OP1        51.5744   21.0459   -9.8419 O.co2       1 MOL      -0.6054
     15 OP2        50.0796   21.4751   -8.1861 O.co2       1 MOL      -0.6054
     16 CB         49.1722   18.6496  -10.7260 C.3         1 MOL       0.0219
     17 CG         48.2218   18.3273  -11.8374 C.ar        1 MOL      -0.0392
     18 CD1        48.6063   17.4059  -12.8459 C.ar        1 MOL      -0.0602
     19 CD2        46.9008   18.8378  -11.8724 C.ar        1 MOL      -0.0602
     20 CE1        47.7068   17.0130  -13.8523 C.ar        1 MOL      -0.0686
     21 CE2        46.0079   18.4668  -12.8970 C.ar        1 MOL      -0.0686
     22 CZ         46.4052   17.5433  -13.8778 C.ar        1 MOL      -0.0687
     23 N          51.1242   19.2674   -8.4224 N.am        1 MOL      -0.2733
     24 CA         50.7924   18.6878   -7.1792 C.3         1 MOL       0.1230
     25 C          51.8454   18.9582   -6.1918 C.2         1 MOL       0.1994
     26 O          52.7263   19.7735   -6.4427 O.2         1 MOL      -0.3949
     27 CB         50.5257   17.1541   -7.4276 C.3         1 MOL      -0.0136
     28 CG         49.4033   16.4380   -6.6041 C.3         1 MOL      -0.0429
     29 CD1        48.0819   17.2483   -6.4445 C.3         1 MOL      -0.0625
     30 CD2        49.0945   15.0366   -7.2149 C.3         1 MOL      -0.0625
     31 N          51.8006   18.4138   -4.9760 N.am        1 MOL      -0.2701
     32 CA         52.6958   18.6771   -3.8798 C.3         1 MOL       0.0916
     33 C          54.0562   18.1143   -4.0979 C.2         1 MOL       0.0598
     34 O          54.6531   17.2813   -3.2139 O.co2       1 MOL      -0.5666
     35 CB         52.0400   18.1610   -2.5739 C.3         1 MOL      -0.0300
     36 OXT        54.8075   18.5168   -5.1464 O.co2       1 MOL      -0.5666
     37 H1         50.8306   22.7226  -14.4762 H           1 MOL       0.0776
     38 H2         49.2254   23.2913  -14.9338 H           1 MOL       0.0776
     39 H3         51.1711   21.8321  -16.7615 H           1 MOL       0.0557
     40 H4         47.8964   20.4261  -14.4959 H           1 MOL       0.0557
     41 H5         50.8832   19.9927  -18.2927 H           1 MOL       0.0599
     42 H6         47.6036   18.6266  -16.0746 H           1 MOL       0.0599
     43 H7         49.1129   18.3739  -17.9481 H           1 MOL       0.0559
     44 H8         48.3959   21.8286  -10.9560 H           1 MOL       0.1888
     45 H9         48.3076   20.1983   -9.5406 H           1 MOL       0.0803
     46 H10        48.8914   17.9812   -9.9087 H           1 MOL       0.0465
     47 H11        50.1862   18.3745  -11.0291 H           1 MOL       0.0465
     48 H12        49.5443   16.9955  -12.8402 H           1 MOL       0.0557
     49 H13        46.5750   19.4877  -11.1547 H           1 MOL       0.0557
     50 H14        48.0006   16.3434  -14.5663 H           1 MOL       0.0599
     51 H15        45.0675   18.8658  -12.9278 H           1 MOL       0.0599
     52 H16        45.7592   17.2685  -14.6197 H           1 MOL       0.0559
     53 H17        51.8178   18.8541   -8.8959 H           1 MOL       0.1669
     54 H18        49.8907   19.1554   -6.7811 H           1 MOL       0.0753
     55 H19        51.4622   16.6050   -7.2777 H           1 MOL       0.0311
     56 H20        50.2843   16.9992   -8.4778 H           1 MOL       0.0311
     57 H21        49.7970   16.2685   -5.6012 H           1 MOL       0.0298
     58 H22        47.2691   16.6091   -6.0914 H           1 MOL       0.0232
     59 H23        47.7837   17.7004   -7.3935 H           1 MOL       0.0232
     60 H24        48.2096   18.0401   -5.7020 H           1 MOL       0.0232
     61 H25        50.0063   14.4392   -7.2811 H           1 MOL       0.0232
     62 H26        48.6703   15.1359   -8.2172 H           1 MOL       0.0232
     63 H27        48.3795   14.4926   -6.5915 H           1 MOL       0.0232
     64 H28        51.0490   17.8280   -4.7865 H           1 MOL       0.1875
     65 H29        52.8021   19.7583   -3.7707 H           1 MOL       0.0723
     66 H30        52.6517   18.4349   -1.7129 H           1 MOL       0.0270
     67 H31        51.9356   17.0740   -2.6030 H           1 MOL       0.0270
     68 H32        51.0505   18.6069   -2.4471 H           1 MOL       0.0270
@<TRIPOS>BOND
     1    23    24   1
     2    24    27   1
     3    24    25   1
     4    25    26   2
     5    27    28   1
     6    28    29   1
     7    28    30   1
     8    31    32   1
     9    32    35   1
    10    32    33   1
    11    33    34  ar
    12    33    36  ar
    13    25    31  am
    14     1     2   2
    15     1     3   1
    16    11     1  am
    17     3     4   1
    18     4     5   1
    19     5     6  ar
    20     5     7  ar
    21     6     8  ar
    22     7     9  ar
    23     8    10  ar
    24     9    10  ar
    25    12    11   1
    26    13    12   1
    27    12    16   1
    28    13    14  ar
    29    13    15  ar
    30    13    23  am
    31    16    17   1
    32    17    18  ar
    33    17    19  ar
    34    18    20  ar
    35    19    21  ar
    36    20    22  ar
    37    21    22  ar
    38     4    37   1
    39     4    38   1
    40     6    39   1
    41     7    40   1
    42     8    41   1
    43     9    42   1
    44    10    43   1
    45    11    44   1
    46    12    45   1
    47    16    46   1
    48    16    47   1
    49    18    48   1
    50    19    49   1
    51    20    50   1
    52    21    51   1
    53    22    52   1
    54    23    53   1
    55    24    54   1
    56    27    55   1
    57    27    56   1
    58    28    57   1
    59    29    58   1
    60    29    59   1
    61    29    60   1
    62    30    61   1
    63    30    62   1
    64    30    63   1
    65    31    64   1
    66    32    65   1
    67    35    66   1
    68    35    67   1
    69    35    68   1
@<TRIPOS>SUBSTRUCTURE
     1  MOL      1

