@<TRIPOS>MOLECULE
4tmn_ligand_040
    68    69
SMALL
GAST_HUCK
****
This file was generated by PARSER (from files_GN.cpp)

@<TRIPOS>ATOM
      1 C          53.3560   18.6220   -3.0412 C.2         1 MOL       0.3232
      2 O          54.6650   18.7681   -3.3709 O.2         1 MOL      -0.3774
      3 OA         52.8602   19.1698   -1.9021 O.3         1 MOL      -0.2506
      4 CB         53.5560   19.9900   -0.9551 C.3         1 MOL       0.1113
      5 CG         53.7967   19.2140    0.2842 C.ar        1 MOL      -0.0130
      6 CD1        52.7393   18.9508    1.1859 C.ar        1 MOL      -0.0578
      7 CD2        55.0849   18.7051    0.5793 C.ar        1 MOL      -0.0578
      8 CE1        52.9711   18.2311    2.3747 C.ar        1 MOL      -0.0685
      9 CE2        55.3131   17.9715    1.7577 C.ar        1 MOL      -0.0685
     10 CZ         54.2624   17.7454    2.6616 C.ar        1 MOL      -0.0687
     11 N          52.4950   17.9248   -3.8182 N.am        1 MOL      -0.2403
     12 CA         52.7838   17.2743   -5.0607 C.3         1 MOL       0.1331
     13 P          51.9538   18.1022   -6.2718 P.3         1 MOL       0.0925
     14 OP1        50.7667   18.7903   -5.8303 O.co2       1 MOL      -0.6054
     15 OP2        52.8110   19.1914   -6.6697 O.co2       1 MOL      -0.6054
     16 CB         52.4146   15.7581   -4.9453 C.3         1 MOL       0.0219
     17 CG         53.3068   14.9690   -4.0363 C.ar        1 MOL      -0.0392
     18 CD1        54.2904   14.1047   -4.5716 C.ar        1 MOL      -0.0602
     19 CD2        53.1182   14.9930   -2.6325 C.ar        1 MOL      -0.0602
     20 CE1        55.0743   13.2963   -3.7275 C.ar        1 MOL      -0.0686
     21 CE2        53.8926   14.1698   -1.7913 C.ar        1 MOL      -0.0686
     22 CZ         54.8697   13.3240   -2.3402 C.ar        1 MOL      -0.0687
     23 N          51.6819   17.3178   -7.5519 N.am        1 MOL      -0.2733
     24 CA         50.4281   17.0328   -8.1521 C.3         1 MOL       0.1230
     25 C          49.8594   18.2591   -8.7263 C.2         1 MOL       0.1994
     26 O          48.7216   18.6243   -8.4299 O.2         1 MOL      -0.3949
     27 CB         49.4787   16.1962   -7.2065 C.3         1 MOL      -0.0136
     28 CG         48.5045   15.1424   -7.8316 C.3         1 MOL      -0.0429
     29 CD1        47.5164   15.7283   -8.8785 C.3         1 MOL      -0.0625
     30 CD2        49.2416   13.8963   -8.4044 C.3         1 MOL      -0.0625
     31 N          50.6279   19.0176   -9.4990 N.am        1 MOL      -0.2701
     32 CA         50.3476   20.3393   -9.9790 C.3         1 MOL       0.0916
     33 C          51.2792   20.6420  -11.0861 C.2         1 MOL       0.0598
     34 O          51.1381   20.0063  -12.2639 O.co2       1 MOL      -0.5666
     35 CB         50.4284   21.3722   -8.8241 C.3         1 MOL      -0.0300
     36 OXT        52.3342   21.4830  -10.9448 O.co2       1 MOL      -0.5666
     37 H1         52.9408   20.8660   -0.7380 H           1 MOL       0.0776
     38 H2         54.4962   20.3647   -1.3712 H           1 MOL       0.0776
     39 H3         51.7967   19.2979    0.9926 H           1 MOL       0.0557
     40 H4         55.8646   18.8618   -0.0630 H           1 MOL       0.0557
     41 H5         52.2059   18.0660    3.0310 H           1 MOL       0.0599
     42 H6         56.2485   17.6053    1.9579 H           1 MOL       0.0599
     43 H7         54.4332   17.2281    3.5273 H           1 MOL       0.0559
     44 H8         51.5822   17.8448   -3.4922 H           1 MOL       0.1888
     45 H9         53.8513   17.3261   -5.2992 H           1 MOL       0.0803
     46 H10        52.4340   15.3128   -5.9422 H           1 MOL       0.0465
     47 H11        51.3895   15.6562   -4.5895 H           1 MOL       0.0465
     48 H12        54.4342   14.0478   -5.5831 H           1 MOL       0.0557
     49 H13        52.4010   15.5939   -2.2153 H           1 MOL       0.0557
     50 H14        55.7775   12.6719   -4.1310 H           1 MOL       0.0599
     51 H15        53.7281   14.1772   -0.7813 H           1 MOL       0.0599
     52 H16        55.4170   12.7091   -1.7331 H           1 MOL       0.0559
     53 H17        52.4276   17.2138   -8.1078 H           1 MOL       0.1669
     54 H18        50.6651   16.3925   -9.0034 H           1 MOL       0.0753
     55 H19        48.8808   16.8793   -6.5897 H           1 MOL       0.0311
     56 H20        50.1097   15.6357   -6.4969 H           1 MOL       0.0311
     57 H21        47.8865   14.7660   -7.0097 H           1 MOL       0.0298
     58 H22        46.7861   14.9677   -9.1772 H           1 MOL       0.0232
     59 H23        48.0446   16.0647   -9.7702 H           1 MOL       0.0232
     60 H24        46.9674   16.5709   -8.4562 H           1 MOL       0.0232
     61 H25        49.9005   13.4690   -7.6455 H           1 MOL       0.0232
     62 H26        49.8358   14.1617   -9.2774 H           1 MOL       0.0232
     63 H27        48.5242   13.1228   -8.6943 H           1 MOL       0.0232
     64 H28        51.5204   18.6768   -9.6706 H           1 MOL       0.1875
     65 H29        49.3356   20.3709  -10.3891 H           1 MOL       0.0723
     66 H30        50.1976   22.3706   -9.1948 H           1 MOL       0.0270
     67 H31        51.4258   21.3815   -8.3851 H           1 MOL       0.0270
     68 H32        49.7147   21.1240   -8.0402 H           1 MOL       0.0270
@<TRIPOS>BOND
     1    23    24   1
     2    24    27   1
     3    24    25   1
     4    25    26   2
     5    27    28   1
     6    28    29   1
     7    28    30   1
     8    31    32   1
     9    32    35   1
    10    32    33   1
    11    33    34  ar
    12    33    36  ar
    13    25    31  am
    14     1     2   2
    15     1     3   1
    16    11     1  am
    17     3     4   1
    18     4     5   1
    19     5     6  ar
    20     5     7  ar
    21     6     8  ar
    22     7     9  ar
    23     8    10  ar
    24     9    10  ar
    25    12    11   1
    26    13    12   1
    27    12    16   1
    28    13    14  ar
    29    13    15  ar
    30    13    23  am
    31    16    17   1
    32    17    18  ar
    33    17    19  ar
    34    18    20  ar
    35    19    21  ar
    36    20    22  ar
    37    21    22  ar
    38     4    37   1
    39     4    38   1
    40     6    39   1
    41     7    40   1
    42     8    41   1
    43     9    42   1
    44    10    43   1
    45    11    44   1
    46    12    45   1
    47    16    46   1
    48    16    47   1
    49    18    48   1
    50    19    49   1
    51    20    50   1
    52    21    51   1
    53    22    52   1
    54    23    53   1
    55    24    54   1
    56    27    55   1
    57    27    56   1
    58    28    57   1
    59    29    58   1
    60    29    59   1
    61    29    60   1
    62    30    61   1
    63    30    62   1
    64    30    63   1
    65    31    64   1
    66    32    65   1
    67    35    66   1
    68    35    67   1
    69    35    68   1
@<TRIPOS>SUBSTRUCTURE
     1  MOL      1

