@<TRIPOS>MOLECULE
4tmn_ligand_030
    68    69
SMALL
GAST_HUCK
****
This file was generated by PARSER (from files_GN.cpp)

@<TRIPOS>ATOM
      1 C          53.2305   15.9504   -3.6660 C.2         1 MOL       0.3232
      2 O          52.7639   16.2746   -2.4385 O.2         1 MOL      -0.3774
      3 OA         53.7895   14.7319   -3.8821 O.3         1 MOL      -0.2506
      4 CB         54.0143   13.6709   -2.9408 C.3         1 MOL       0.1113
      5 CG         52.7623   13.0407   -2.4437 C.ar        1 MOL      -0.0130
      6 CD1        51.7041   12.7499   -3.3363 C.ar        1 MOL      -0.0578
      7 CD2        52.6042   12.7161   -1.0738 C.ar        1 MOL      -0.0578
      8 CE1        50.5055   12.1752   -2.8687 C.ar        1 MOL      -0.0685
      9 CE2        51.4150   12.1262   -0.6085 C.ar        1 MOL      -0.0685
     10 CZ         50.3606   11.8634   -1.5032 C.ar        1 MOL      -0.0687
     11 N          53.0998   16.7722   -4.7345 N.am        1 MOL      -0.2403
     12 CA         52.2991   17.9641   -4.8086 C.3         1 MOL       0.1331
     13 P          51.8839   18.2700   -6.4178 P.3         1 MOL       0.0925
     14 OP1        52.6733   19.3711   -6.9193 O.co2       1 MOL      -0.6054
     15 OP2        52.1666   17.1442   -7.2756 O.co2       1 MOL      -0.6054
     16 CB         53.0226   19.1845   -4.1356 C.3         1 MOL       0.0219
     17 CG         52.9845   19.1957   -2.6454 C.ar        1 MOL      -0.0392
     18 CD1        51.7513   19.0343   -1.9732 C.ar        1 MOL      -0.0602
     19 CD2        54.1533   19.4342   -1.8788 C.ar        1 MOL      -0.0602
     20 CE1        51.6827   19.1068   -0.5687 C.ar        1 MOL      -0.0686
     21 CE2        54.0868   19.4879   -0.4746 C.ar        1 MOL      -0.0686
     22 CZ         52.8533   19.3219    0.1821 C.ar        1 MOL      -0.0687
     23 N          50.4108   18.6572   -6.4730 N.am        1 MOL      -0.2733
     24 CA         49.4525   18.4691   -7.4954 C.3         1 MOL       0.1230
     25 C          49.3489   17.1129   -8.0400 C.2         1 MOL       0.1994
     26 O          49.6420   16.8904   -9.2072 O.2         1 MOL      -0.3949
     27 CB         49.4451   19.6278   -8.5440 C.3         1 MOL      -0.0136
     28 CG         50.6185   19.6939   -9.5920 C.3         1 MOL      -0.0429
     29 CD1        50.1143   19.6673  -11.0645 C.3         1 MOL      -0.0625
     30 CD2        51.5398   20.9273   -9.3728 C.3         1 MOL      -0.0625
     31 N          49.0431   16.1076   -7.2265 N.am        1 MOL      -0.2701
     32 CA         49.1085   14.7005   -7.5013 C.3         1 MOL       0.0916
     33 C          50.5199   14.2476   -7.4778 C.2         1 MOL       0.0598
     34 O          51.1693   14.2048   -6.2921 O.co2       1 MOL      -0.5666
     35 CB         48.3144   14.2632   -8.7624 C.3         1 MOL      -0.0300
     36 OXT        51.2429   14.0677   -8.6097 O.co2       1 MOL      -0.5666
     37 H1         54.6132   14.0737   -2.1209 H           1 MOL       0.0776
     38 H2         54.6110   12.9045   -3.4386 H           1 MOL       0.0776
     39 H3         51.7885   12.9696   -4.3301 H           1 MOL       0.0557
     40 H4         53.3542   12.9037   -0.4059 H           1 MOL       0.0557
     41 H5         49.7384   11.9867   -3.5182 H           1 MOL       0.0599
     42 H6         51.3103   11.8926    0.3806 H           1 MOL       0.0599
     43 H7         49.4896   11.4439   -1.1615 H           1 MOL       0.0559
     44 H8         53.4565   16.4361   -5.5722 H           1 MOL       0.1888
     45 H9         51.3563   17.7806   -4.2730 H           1 MOL       0.0803
     46 H10        52.5581   20.1227   -4.4561 H           1 MOL       0.0465
     47 H11        54.0584   19.2137   -4.4911 H           1 MOL       0.0465
     48 H12        50.8963   18.8649   -2.5128 H           1 MOL       0.0557
     49 H13        55.0582   19.5759   -2.3368 H           1 MOL       0.0557
     50 H14        50.7798   19.0043   -0.0997 H           1 MOL       0.0599
     51 H15        54.9344   19.6543    0.0749 H           1 MOL       0.0599
     52 H16        52.8008   19.3622    1.2045 H           1 MOL       0.0559
     53 H17        50.1165   19.1928   -5.7588 H           1 MOL       0.1669
     54 H18        48.5074   18.6064   -6.9643 H           1 MOL       0.0753
     55 H19        49.4049   20.5682   -7.9855 H           1 MOL       0.0311
     56 H20        48.4898   19.5746   -9.0759 H           1 MOL       0.0311
     57 H21        51.2513   18.8114   -9.4690 H           1 MOL       0.0298
     58 H22        50.9550   19.6644  -11.7632 H           1 MOL       0.0232
     59 H23        49.4943   20.5409  -11.2782 H           1 MOL       0.0232
     60 H24        49.5200   18.7721  -11.2540 H           1 MOL       0.0232
     61 H25        51.8636   20.9657   -8.3286 H           1 MOL       0.0232
     62 H26        51.0082   21.8546   -9.6092 H           1 MOL       0.0232
     63 H27        52.4307   20.8566  -10.0081 H           1 MOL       0.0232
     64 H28        48.8044   16.3479   -6.3137 H           1 MOL       0.1875
     65 H29        48.6209   14.2034   -6.6601 H           1 MOL       0.0723
     66 H30        48.2769   13.1728   -8.8152 H           1 MOL       0.0270
     67 H31        48.7706   14.6360   -9.6805 H           1 MOL       0.0270
     68 H32        47.2885   14.6391   -8.7061 H           1 MOL       0.0270
@<TRIPOS>BOND
     1    23    24   1
     2    24    27   1
     3    24    25   1
     4    25    26   2
     5    27    28   1
     6    28    29   1
     7    28    30   1
     8    31    32   1
     9    32    35   1
    10    32    33   1
    11    33    34  ar
    12    33    36  ar
    13    25    31  am
    14     1     2   2
    15     1     3   1
    16    11     1  am
    17     3     4   1
    18     4     5   1
    19     5     6  ar
    20     5     7  ar
    21     6     8  ar
    22     7     9  ar
    23     8    10  ar
    24     9    10  ar
    25    12    11   1
    26    13    12   1
    27    12    16   1
    28    13    14  ar
    29    13    15  ar
    30    13    23  am
    31    16    17   1
    32    17    18  ar
    33    17    19  ar
    34    18    20  ar
    35    19    21  ar
    36    20    22  ar
    37    21    22  ar
    38     4    37   1
    39     4    38   1
    40     6    39   1
    41     7    40   1
    42     8    41   1
    43     9    42   1
    44    10    43   1
    45    11    44   1
    46    12    45   1
    47    16    46   1
    48    16    47   1
    49    18    48   1
    50    19    49   1
    51    20    50   1
    52    21    51   1
    53    22    52   1
    54    23    53   1
    55    24    54   1
    56    27    55   1
    57    27    56   1
    58    28    57   1
    59    29    58   1
    60    29    59   1
    61    29    60   1
    62    30    61   1
    63    30    62   1
    64    30    63   1
    65    31    64   1
    66    32    65   1
    67    35    66   1
    68    35    67   1
    69    35    68   1
@<TRIPOS>SUBSTRUCTURE
     1  MOL      1

