@<TRIPOS>MOLECULE
4tmn_ligand_048
    68    69
SMALL
GAST_HUCK
****
This file was generated by PARSER (from files_GN.cpp)

@<TRIPOS>ATOM
      1 C          53.4925   16.7464   -2.7595 C.2         1 MOL       0.3232
      2 O          54.8300   16.9108   -2.8862 O.2         1 MOL      -0.3774
      3 OA         52.7522   17.6815   -2.1036 O.3         1 MOL      -0.2506
      4 CB         53.2144   18.8921   -1.4915 C.3         1 MOL       0.1113
      5 CG         53.5735   18.6461   -0.0727 C.ar        1 MOL      -0.0130
      6 CD1        54.8978   18.3055    0.2946 C.ar        1 MOL      -0.0578
      7 CD2        52.5895   18.7244    0.9387 C.ar        1 MOL      -0.0578
      8 CE1        55.2208   18.0344    1.6390 C.ar        1 MOL      -0.0685
      9 CE2        52.9150   18.4630    2.2842 C.ar        1 MOL      -0.0685
     10 CZ         54.2313   18.1112    2.6332 C.ar        1 MOL      -0.0687
     11 N          52.8297   15.7342   -3.3618 N.am        1 MOL      -0.2403
     12 CA         53.3908   14.7865   -4.2903 C.3         1 MOL       0.1331
     13 P          52.3724   14.6937   -5.6229 P.3         1 MOL       0.0925
     14 OP1        52.9775   13.7935   -6.5736 O.co2       1 MOL      -0.6054
     15 OP2        51.1279   14.0553   -5.2775 O.co2       1 MOL      -0.6054
     16 CB         53.6633   13.4083   -3.5807 C.3         1 MOL       0.0219
     17 CG         55.1032   13.0159   -3.5515 C.ar        1 MOL      -0.0392
     18 CD1        55.7757   12.6637   -4.7468 C.ar        1 MOL      -0.0602
     19 CD2        55.8170   12.9409   -2.3333 C.ar        1 MOL      -0.0602
     20 CE1        57.1128   12.2239   -4.7176 C.ar        1 MOL      -0.0686
     21 CE2        57.1544   12.5078   -2.3008 C.ar        1 MOL      -0.0686
     22 CZ         57.8039   12.1434   -3.4964 C.ar        1 MOL      -0.0687
     23 N          52.1968   15.9926   -6.3996 N.am        1 MOL      -0.2733
     24 CA         51.0521   16.8046   -6.5566 C.3         1 MOL       0.1230
     25 C          50.9271   17.3271   -7.9218 C.2         1 MOL       0.1994
     26 O          51.2675   16.6327   -8.8731 O.2         1 MOL      -0.3949
     27 CB         51.0385   17.9117   -5.4444 C.3         1 MOL      -0.0136
     28 CG         52.1809   18.9886   -5.3304 C.3         1 MOL      -0.0429
     29 CD1        53.6228   18.4612   -5.5700 C.3         1 MOL      -0.0625
     30 CD2        51.9152   20.2554   -6.1863 C.3         1 MOL      -0.0625
     31 N          50.3232   18.4936   -8.1405 N.am        1 MOL      -0.2701
     32 CA         50.0932   19.1435   -9.4065 C.3         1 MOL       0.0916
     33 C          50.5396   20.5521   -9.3147 C.2         1 MOL       0.0598
     34 O          51.5903   20.9934  -10.0448 O.co2       1 MOL      -0.5666
     35 CB         48.5941   19.0694   -9.7835 C.3         1 MOL      -0.0300
     36 OXT        49.9501   21.4157   -8.4539 O.co2       1 MOL      -0.5666
     37 H1         52.4108   19.6303   -1.5472 H           1 MOL       0.0776
     38 H2         54.0538   19.3141   -2.0524 H           1 MOL       0.0776
     39 H3         55.6327   18.2418   -0.4142 H           1 MOL       0.0557
     40 H4         51.6271   18.9829    0.7019 H           1 MOL       0.0557
     41 H5         56.1783   17.7751    1.8892 H           1 MOL       0.0599
     42 H6         52.1947   18.5255    3.0061 H           1 MOL       0.0599
     43 H7         54.4638   17.9105    3.6071 H           1 MOL       0.0559
     44 H8         51.8659   15.7166   -3.2457 H           1 MOL       0.1888
     45 H9         54.3339   15.1799   -4.6822 H           1 MOL       0.0803
     46 H10        53.1169   12.5873   -4.0580 H           1 MOL       0.0465
     47 H11        53.2719   13.4466   -2.5580 H           1 MOL       0.0465
     48 H12        55.2910   12.7042   -5.6439 H           1 MOL       0.0557
     49 H13        55.3586   13.1925   -1.4570 H           1 MOL       0.0557
     50 H14        57.5843   11.9493   -5.5852 H           1 MOL       0.0599
     51 H15        57.6575   12.4466   -1.4114 H           1 MOL       0.0599
     52 H16        58.7751   11.8173   -3.4740 H           1 MOL       0.0559
     53 H17        52.9897   16.3617   -6.7125 H           1 MOL       0.1669
     54 H18        50.1541   16.1956   -6.4021 H           1 MOL       0.0753
     55 H19        50.9948   17.3917   -4.4828 H           1 MOL       0.0311
     56 H20        50.0754   18.4328   -5.5041 H           1 MOL       0.0311
     57 H21        52.1485   19.3417   -4.2977 H           1 MOL       0.0298
     58 H22        54.3554   19.1948   -5.2223 H           1 MOL       0.0232
     59 H23        53.8048   18.2814   -6.6353 H           1 MOL       0.0232
     60 H24        53.7930   17.5427   -5.0115 H           1 MOL       0.0232
     61 H25        50.8908   20.6117   -6.0328 H           1 MOL       0.0232
     62 H26        52.0650   20.0466   -7.2475 H           1 MOL       0.0232
     63 H27        52.6037   21.0549   -5.8933 H           1 MOL       0.0232
     64 H28        50.0178   18.9807   -7.3586 H           1 MOL       0.1875
     65 H29        50.6620   18.6617  -10.2114 H           1 MOL       0.0723
     66 H30        48.4193   19.5841  -10.7307 H           1 MOL       0.0270
     67 H31        47.9775   19.5334   -9.0114 H           1 MOL       0.0270
     68 H32        48.2923   18.0279   -9.8947 H           1 MOL       0.0270
@<TRIPOS>BOND
     1    23    24   1
     2    24    27   1
     3    24    25   1
     4    25    26   2
     5    27    28   1
     6    28    29   1
     7    28    30   1
     8    31    32   1
     9    32    35   1
    10    32    33   1
    11    33    34  ar
    12    33    36  ar
    13    25    31  am
    14     1     2   2
    15     1     3   1
    16    11     1  am
    17     3     4   1
    18     4     5   1
    19     5     6  ar
    20     5     7  ar
    21     6     8  ar
    22     7     9  ar
    23     8    10  ar
    24     9    10  ar
    25    12    11   1
    26    13    12   1
    27    12    16   1
    28    13    14  ar
    29    13    15  ar
    30    13    23  am
    31    16    17   1
    32    17    18  ar
    33    17    19  ar
    34    18    20  ar
    35    19    21  ar
    36    20    22  ar
    37    21    22  ar
    38     4    37   1
    39     4    38   1
    40     6    39   1
    41     7    40   1
    42     8    41   1
    43     9    42   1
    44    10    43   1
    45    11    44   1
    46    12    45   1
    47    16    46   1
    48    16    47   1
    49    18    48   1
    50    19    49   1
    51    20    50   1
    52    21    51   1
    53    22    52   1
    54    23    53   1
    55    24    54   1
    56    27    55   1
    57    27    56   1
    58    28    57   1
    59    29    58   1
    60    29    59   1
    61    29    60   1
    62    30    61   1
    63    30    62   1
    64    30    63   1
    65    31    64   1
    66    32    65   1
    67    35    66   1
    68    35    67   1
    69    35    68   1
@<TRIPOS>SUBSTRUCTURE
     1  MOL      1

