@<TRIPOS>MOLECULE
4tmn_ligand_016
    68    69
SMALL
GAST_HUCK
****
This file was generated by PARSER (from files_GN.cpp)

@<TRIPOS>ATOM
      1 C          46.8090   14.8481   -8.4312 C.2         1 MOL       0.3232
      2 O          45.8148   15.1752   -7.5661 O.2         1 MOL      -0.3774
      3 OA         46.8239   13.6782   -9.1225 O.3         1 MOL      -0.2506
      4 CB         45.9559   12.5390   -9.2207 C.3         1 MOL       0.1113
      5 CG         44.7212   12.5620   -8.3912 C.ar        1 MOL      -0.0130
      6 CD1        43.4495   12.7903   -8.9752 C.ar        1 MOL      -0.0578
      7 CD2        44.7890   12.2972   -7.0019 C.ar        1 MOL      -0.0578
      8 CE1        42.2804   12.7780   -8.1832 C.ar        1 MOL      -0.0685
      9 CE2        43.6230   12.2765   -6.2153 C.ar        1 MOL      -0.0685
     10 CZ         42.3640   12.5130   -6.8093 C.ar        1 MOL      -0.0687
     11 N          47.8041   15.7106   -8.7428 N.am        1 MOL      -0.2403
     12 CA         47.9834   17.0758   -8.3364 C.3         1 MOL       0.1331
     13 P          48.8362   17.2044   -6.8962 P.3         1 MOL       0.0925
     14 OP1        47.9613   17.0189   -5.7603 O.co2       1 MOL      -0.6054
     15 OP2        49.8235   16.1553   -6.7898 O.co2       1 MOL      -0.6054
     16 CB         46.7082   17.9843   -8.4095 C.3         1 MOL       0.0219
     17 CG         45.7928   17.7498   -9.5653 C.ar        1 MOL      -0.0392
     18 CD1        44.3886   17.7373   -9.3688 C.ar        1 MOL      -0.0602
     19 CD2        46.2815   17.6005  -10.8906 C.ar        1 MOL      -0.0602
     20 CE1        43.5046   17.5286  -10.4473 C.ar        1 MOL      -0.0686
     21 CE2        45.4027   17.3676  -11.9657 C.ar        1 MOL      -0.0686
     22 CZ         44.0121   17.3345  -11.7451 C.ar        1 MOL      -0.0687
     23 N          49.5451   18.5382   -6.7106 N.am        1 MOL      -0.2733
     24 CA         50.5695   19.0541   -7.5309 C.3         1 MOL       0.1230
     25 C          51.7981   19.2340   -6.7464 C.2         1 MOL       0.1994
     26 O          52.4453   20.2743   -6.8276 O.2         1 MOL      -0.3949
     27 CB         50.0392   20.3542   -8.2292 C.3         1 MOL      -0.0136
     28 CG         50.8214   20.8386   -9.4969 C.3         1 MOL      -0.0429
     29 CD1        50.5234   19.9616  -10.7481 C.3         1 MOL      -0.0625
     30 CD2        50.5068   22.3291   -9.8105 C.3         1 MOL      -0.0625
     31 N          52.2301   18.2378   -5.9759 N.am        1 MOL      -0.2701
     32 CA         53.4039   18.2371   -5.1400 C.3         1 MOL       0.0916
     33 C          53.6818   16.8790   -4.6157 C.2         1 MOL       0.0598
     34 O          52.8488   15.8309   -4.8398 O.co2       1 MOL      -0.5666
     35 CB         53.2725   19.2343   -3.9514 C.3         1 MOL      -0.0300
     36 OXT        54.8114   16.6519   -3.9067 O.co2       1 MOL      -0.5666
     37 H1         46.5382   11.6510   -8.9577 H           1 MOL       0.0776
     38 H2         45.6895   12.4401  -10.2791 H           1 MOL       0.0776
     39 H3         43.3638   12.9844   -9.9753 H           1 MOL       0.0557
     40 H4         45.6940   12.1200   -6.5553 H           1 MOL       0.0557
     41 H5         41.3673   12.9470   -8.6179 H           1 MOL       0.0599
     42 H6         43.6844   12.0814   -5.2134 H           1 MOL       0.0599
     43 H7         41.5175   12.4813   -6.2381 H           1 MOL       0.0559
     44 H8         48.4493   15.3895   -9.4015 H           1 MOL       0.1888
     45 H9         48.6675   17.4719   -9.0883 H           1 MOL       0.0803
     46 H10        47.0137   19.0359   -8.4570 H           1 MOL       0.0465
     47 H11        46.1363   17.8730   -7.4823 H           1 MOL       0.0465
     48 H12        43.9905   17.8738   -8.4337 H           1 MOL       0.0557
     49 H13        47.2837   17.6353  -11.0841 H           1 MOL       0.0557
     50 H14        42.4936   17.5285  -10.2903 H           1 MOL       0.0599
     51 H15        45.7731   17.2241  -12.9112 H           1 MOL       0.0599
     52 H16        43.3700   17.1984  -12.5319 H           1 MOL       0.0559
     53 H17        49.3548   19.0100   -5.9182 H           1 MOL       0.1669
     54 H18        50.8308   18.3369   -8.3153 H           1 MOL       0.0753
     55 H19        50.0305   21.1448   -7.4752 H           1 MOL       0.0311
     56 H20        48.9956   20.2139   -8.5272 H           1 MOL       0.0311
     57 H21        51.8971   20.7731   -9.2994 H           1 MOL       0.0298
     58 H22        51.1340   20.2848  -11.5942 H           1 MOL       0.0232
     59 H23        49.4700   20.0296  -11.0315 H           1 MOL       0.0232
     60 H24        50.7598   18.9151  -10.5562 H           1 MOL       0.0232
     61 H25        50.7477   22.9564   -8.9478 H           1 MOL       0.0232
     62 H26        49.4469   22.4581  -10.0494 H           1 MOL       0.0232
     63 H27        51.1055   22.6749  -10.6568 H           1 MOL       0.0232
     64 H28        51.7151   17.4143   -6.0020 H           1 MOL       0.1875
     65 H29        54.2627   18.5285   -5.7537 H           1 MOL       0.0723
     66 H30        54.2015   19.2675   -3.3768 H           1 MOL       0.0270
     67 H31        52.4592   18.9372   -3.2855 H           1 MOL       0.0270
     68 H32        53.0725   20.2457   -4.3047 H           1 MOL       0.0270
@<TRIPOS>BOND
     1    23    24   1
     2    24    27   1
     3    24    25   1
     4    25    26   2
     5    27    28   1
     6    28    29   1
     7    28    30   1
     8    31    32   1
     9    32    35   1
    10    32    33   1
    11    33    34  ar
    12    33    36  ar
    13    25    31  am
    14     1     2   2
    15     1     3   1
    16    11     1  am
    17     3     4   1
    18     4     5   1
    19     5     6  ar
    20     5     7  ar
    21     6     8  ar
    22     7     9  ar
    23     8    10  ar
    24     9    10  ar
    25    12    11   1
    26    13    12   1
    27    12    16   1
    28    13    14  ar
    29    13    15  ar
    30    13    23  am
    31    16    17   1
    32    17    18  ar
    33    17    19  ar
    34    18    20  ar
    35    19    21  ar
    36    20    22  ar
    37    21    22  ar
    38     4    37   1
    39     4    38   1
    40     6    39   1
    41     7    40   1
    42     8    41   1
    43     9    42   1
    44    10    43   1
    45    11    44   1
    46    12    45   1
    47    16    46   1
    48    16    47   1
    49    18    48   1
    50    19    49   1
    51    20    50   1
    52    21    51   1
    53    22    52   1
    54    23    53   1
    55    24    54   1
    56    27    55   1
    57    27    56   1
    58    28    57   1
    59    29    58   1
    60    29    59   1
    61    29    60   1
    62    30    61   1
    63    30    62   1
    64    30    63   1
    65    31    64   1
    66    32    65   1
    67    35    66   1
    68    35    67   1
    69    35    68   1
@<TRIPOS>SUBSTRUCTURE
     1  MOL      1

