@<TRIPOS>MOLECULE
4tmn_ligand_071
    68    69
SMALL
GAST_HUCK
****
This file was generated by PARSER (from files_GN.cpp)

@<TRIPOS>ATOM
      1 C          51.3271   20.2271   -7.0135 C.2         1 MOL       0.3232
      2 O          52.6127   20.1939   -7.4207 O.2         1 MOL      -0.3774
      3 OA         50.4282   21.0662   -7.6007 O.3         1 MOL      -0.2506
      4 CB         50.6394   21.9517   -8.7095 C.3         1 MOL       0.1113
      5 CG         49.6644   21.7890   -9.8160 C.ar        1 MOL      -0.0130
      6 CD1        49.7279   22.6821  -10.9139 C.ar        1 MOL      -0.0578
      7 CD2        48.6741   20.7743   -9.8240 C.ar        1 MOL      -0.0578
      8 CE1        48.8297   22.5660  -11.9881 C.ar        1 MOL      -0.0685
      9 CE2        47.7673   20.6667  -10.8967 C.ar        1 MOL      -0.0685
     10 CZ         47.8495   21.5559  -11.9826 C.ar        1 MOL      -0.0687
     11 N          50.8954   19.4339   -6.0095 N.am        1 MOL      -0.2403
     12 CA         51.6751   18.4712   -5.2751 C.3         1 MOL       0.1331
     13 P          51.2244   16.9453   -5.8112 P.3         1 MOL       0.0925
     14 OP1        51.9469   16.6584   -7.0268 O.co2       1 MOL      -0.6054
     15 OP2        51.6404   15.9315   -4.8747 O.co2       1 MOL      -0.6054
     16 CB         51.4860   18.7354   -3.7373 C.3         1 MOL       0.0219
     17 CG         52.7146   18.6646   -2.8984 C.ar        1 MOL      -0.0392
     18 CD1        52.8079   17.7823   -1.7942 C.ar        1 MOL      -0.0602
     19 CD2        53.7779   19.5727   -3.1236 C.ar        1 MOL      -0.0602
     20 CE1        53.9396   17.7927   -0.9575 C.ar        1 MOL      -0.0686
     21 CE2        54.9132   19.5805   -2.2907 C.ar        1 MOL      -0.0686
     22 CZ         54.9969   18.6865   -1.2103 C.ar        1 MOL      -0.0687
     23 N          49.7213   16.8433   -6.0348 N.am        1 MOL      -0.2733
     24 CA         49.0051   16.3104   -7.1340 C.3         1 MOL       0.1230
     25 C          48.9728   14.8455   -7.0595 C.2         1 MOL       0.1994
     26 O          47.9582   14.2982   -6.6450 O.2         1 MOL      -0.3949
     27 CB         49.4204   16.8605   -8.5453 C.3         1 MOL      -0.0136
     28 CG         48.3257   16.9068   -9.6630 C.3         1 MOL      -0.0429
     29 CD1        48.9861   17.2793  -11.0233 C.3         1 MOL      -0.0625
     30 CD2        47.4785   15.6125   -9.8149 C.3         1 MOL      -0.0625
     31 N          50.0193   14.1233   -7.4466 N.am        1 MOL      -0.2701
     32 CA         50.1534   12.6911   -7.4606 C.3         1 MOL       0.0916
     33 C          49.1436   12.0606   -8.3422 C.2         1 MOL       0.0598
     34 O          48.1517   11.2772   -7.8610 O.co2       1 MOL      -0.5666
     35 CB         50.2245   12.0997   -6.0305 C.3         1 MOL      -0.0300
     36 OXT        49.1690   12.3017   -9.6725 O.co2       1 MOL      -0.5666
     37 H1         51.6414   21.8190   -9.1264 H           1 MOL       0.0776
     38 H2         50.5621   22.9704   -8.3228 H           1 MOL       0.0776
     39 H3         50.4290   23.4290  -10.9322 H           1 MOL       0.0557
     40 H4         48.5903   20.1165   -9.0472 H           1 MOL       0.0557
     41 H5         48.8851   23.2199  -12.7721 H           1 MOL       0.0599
     42 H6         47.0435   19.9450  -10.8820 H           1 MOL       0.0599
     43 H7         47.1916   21.4784  -12.7609 H           1 MOL       0.0559
     44 H8         49.9654   19.5239   -5.7449 H           1 MOL       0.1888
     45 H9         52.7377   18.5806   -5.5130 H           1 MOL       0.0803
     46 H10        50.7198   18.0700   -3.3363 H           1 MOL       0.0465
     47 H11        51.0962   19.7453   -3.5862 H           1 MOL       0.0465
     48 H12        52.0434   17.1368   -1.5818 H           1 MOL       0.0557
     49 H13        53.7191   20.2484   -3.8871 H           1 MOL       0.0557
     50 H14        53.9876   17.1599   -0.1564 H           1 MOL       0.0599
     51 H15        55.6746   20.2409   -2.4687 H           1 MOL       0.0599
     52 H16        55.8208   18.6898   -0.6032 H           1 MOL       0.0559
     53 H17        49.1973   17.1148   -5.3104 H           1 MOL       0.1669
     54 H18        47.9855   16.6829   -6.9722 H           1 MOL       0.0753
     55 H19        50.2723   16.2905   -8.9201 H           1 MOL       0.0311
     56 H20        49.7691   17.8905   -8.4128 H           1 MOL       0.0311
     57 H21        47.6303   17.7119   -9.4039 H           1 MOL       0.0298
     58 H22        48.2261   17.4754  -11.7820 H           1 MOL       0.0232
     59 H23        49.6264   16.4647  -11.3719 H           1 MOL       0.0232
     60 H24        49.6020   18.1766  -10.9223 H           1 MOL       0.0232
     61 H25        46.8811   15.4360   -8.9176 H           1 MOL       0.0232
     62 H26        48.1225   14.7487   -9.9935 H           1 MOL       0.0232
     63 H27        46.7828   15.7124  -10.6560 H           1 MOL       0.0232
     64 H28        50.7865   14.6121   -7.7856 H           1 MOL       0.1875
     65 H29        51.1261   12.4826   -7.9140 H           1 MOL       0.0723
     66 H30        50.4317   11.0279   -6.0808 H           1 MOL       0.0270
     67 H31        49.2877   12.2498   -5.4895 H           1 MOL       0.0270
     68 H32        51.0335   12.5784   -5.4722 H           1 MOL       0.0270
@<TRIPOS>BOND
     1    23    24   1
     2    24    27   1
     3    24    25   1
     4    25    26   2
     5    27    28   1
     6    28    29   1
     7    28    30   1
     8    31    32   1
     9    32    35   1
    10    32    33   1
    11    33    34  ar
    12    33    36  ar
    13    25    31  am
    14     1     2   2
    15     1     3   1
    16    11     1  am
    17     3     4   1
    18     4     5   1
    19     5     6  ar
    20     5     7  ar
    21     6     8  ar
    22     7     9  ar
    23     8    10  ar
    24     9    10  ar
    25    12    11   1
    26    13    12   1
    27    12    16   1
    28    13    14  ar
    29    13    15  ar
    30    13    23  am
    31    16    17   1
    32    17    18  ar
    33    17    19  ar
    34    18    20  ar
    35    19    21  ar
    36    20    22  ar
    37    21    22  ar
    38     4    37   1
    39     4    38   1
    40     6    39   1
    41     7    40   1
    42     8    41   1
    43     9    42   1
    44    10    43   1
    45    11    44   1
    46    12    45   1
    47    16    46   1
    48    16    47   1
    49    18    48   1
    50    19    49   1
    51    20    50   1
    52    21    51   1
    53    22    52   1
    54    23    53   1
    55    24    54   1
    56    27    55   1
    57    27    56   1
    58    28    57   1
    59    29    58   1
    60    29    59   1
    61    29    60   1
    62    30    61   1
    63    30    62   1
    64    30    63   1
    65    31    64   1
    66    32    65   1
    67    35    66   1
    68    35    67   1
    69    35    68   1
@<TRIPOS>SUBSTRUCTURE
     1  MOL      1

