@<TRIPOS>MOLECULE
4tmn_ligand_032
    68    69
SMALL
GAST_HUCK
****
This file was generated by PARSER (from files_GN.cpp)

@<TRIPOS>ATOM
      1 C          53.3134   15.6970   -4.1132 C.2         1 MOL       0.3232
      2 O          54.5924   16.0532   -4.3775 O.2         1 MOL      -0.3774
      3 OA         53.0359   14.6425   -3.3046 O.3         1 MOL      -0.2506
      4 CB         53.9472   13.8254   -2.5590 C.3         1 MOL       0.1113
      5 CG         54.9177   13.0681   -3.3925 C.ar        1 MOL      -0.0130
      6 CD1        56.1925   12.7135   -2.8860 C.ar        1 MOL      -0.0578
      7 CD2        54.5995   12.7221   -4.7273 C.ar        1 MOL      -0.0578
      8 CE1        57.1372   12.0620   -3.7009 C.ar        1 MOL      -0.0685
      9 CE2        55.5493   12.0849   -5.5486 C.ar        1 MOL      -0.0685
     10 CZ         56.8205   11.7566   -5.0359 C.ar        1 MOL      -0.0687
     11 N          52.2516   16.3493   -4.6442 N.am        1 MOL      -0.2403
     12 CA         52.2762   17.4078   -5.6146 C.3         1 MOL       0.1331
     13 P          53.2493   18.6987   -5.1565 P.3         1 MOL       0.0925
     14 OP1        54.6319   18.3698   -5.3677 O.co2       1 MOL      -0.6054
     15 OP2        53.0695   19.8211   -6.0421 O.co2       1 MOL      -0.6054
     16 CB         50.8149   17.8725   -5.9471 C.3         1 MOL       0.0219
     17 CG         49.8371   16.7927   -6.2804 C.ar        1 MOL      -0.0392
     18 CD1        50.2334   15.6421   -7.0057 C.ar        1 MOL      -0.0602
     19 CD2        48.4686   16.9369   -5.9477 C.ar        1 MOL      -0.0602
     20 CE1        49.2997   14.6463   -7.3488 C.ar        1 MOL      -0.0686
     21 CE2        47.5320   15.9511   -6.3056 C.ar        1 MOL      -0.0686
     22 CZ         47.9482   14.8031   -7.0041 C.ar        1 MOL      -0.0687
     23 N          53.0341   19.1944   -3.7371 N.am        1 MOL      -0.2733
     24 CA         53.8149   18.8561   -2.6156 C.3         1 MOL       0.1230
     25 C          52.9178   18.7287   -1.4771 C.2         1 MOL       0.1994
     26 O          52.6087   19.7257   -0.8336 O.2         1 MOL      -0.3949
     27 CB         54.9552   19.9178   -2.4311 C.3         1 MOL      -0.0136
     28 CG         55.9361   19.8376   -1.2019 C.3         1 MOL      -0.0429
     29 CD1        55.7608   21.0307   -0.2225 C.3         1 MOL      -0.0625
     30 CD2        55.9341   18.4917   -0.4263 C.3         1 MOL      -0.0625
     31 N          52.3740   17.5445   -1.2171 N.am        1 MOL      -0.2701
     32 CA         51.5688   17.2198   -0.0807 C.3         1 MOL       0.0916
     33 C          52.3635   17.4100    1.1493 C.2         1 MOL       0.0598
     34 O          52.0392   18.3603    2.0504 O.co2       1 MOL      -0.5666
     35 CB         51.0682   15.7591   -0.1866 C.3         1 MOL      -0.0300
     36 OXT        53.5314   16.7531    1.3177 O.co2       1 MOL      -0.5666
     37 H1         53.3467   13.1115   -1.9942 H           1 MOL       0.0776
     38 H2         54.4643   14.4694   -1.8417 H           1 MOL       0.0776
     39 H3         56.4480   12.9384   -1.9214 H           1 MOL       0.0557
     40 H4         53.6842   12.9534   -5.1150 H           1 MOL       0.0557
     41 H5         58.0593   11.8278   -3.3275 H           1 MOL       0.0599
     42 H6         55.3226   11.8679   -6.5224 H           1 MOL       0.0599
     43 H7         57.5144   11.3053   -5.6358 H           1 MOL       0.0559
     44 H8         51.3759   16.0288   -4.3718 H           1 MOL       0.1888
     45 H9         52.6937   17.0050   -6.5383 H           1 MOL       0.0803
     46 H10        50.8387   18.5402   -6.8158 H           1 MOL       0.0465
     47 H11        50.4384   18.4616   -5.1050 H           1 MOL       0.0465
     48 H12        51.2108   15.5126   -7.2852 H           1 MOL       0.0557
     49 H13        48.1409   17.7600   -5.4404 H           1 MOL       0.0557
     50 H14        49.6010   13.8173   -7.8652 H           1 MOL       0.0599
     51 H15        46.5421   16.0747   -6.0667 H           1 MOL       0.0599
     52 H16        47.2652   14.0855   -7.2588 H           1 MOL       0.0559
     53 H17        52.4126   19.8837   -3.6240 H           1 MOL       0.1669
     54 H18        54.3118   17.8890   -2.7654 H           1 MOL       0.0753
     55 H19        54.4950   20.9146   -2.4663 H           1 MOL       0.0311
     56 H20        55.5767   19.8484   -3.3302 H           1 MOL       0.0311
     57 H21        56.9528   19.9458   -1.6057 H           1 MOL       0.0298
     58 H22        56.4706   20.9626    0.6051 H           1 MOL       0.0232
     59 H23        54.7480   21.0412    0.1870 H           1 MOL       0.0232
     60 H24        55.9370   21.9792   -0.7380 H           1 MOL       0.0232
     61 H25        56.0790   17.6535   -1.1097 H           1 MOL       0.0232
     62 H26        54.9912   18.3646    0.1069 H           1 MOL       0.0232
     63 H27        56.7398   18.4705    0.3105 H           1 MOL       0.0232
     64 H28        52.5932   16.8161   -1.8218 H           1 MOL       0.1875
     65 H29        50.6881   17.8733   -0.0738 H           1 MOL       0.0723
     66 H30        50.4332   15.5091    0.6635 H           1 MOL       0.0270
     67 H31        51.9051   15.0613   -0.2119 H           1 MOL       0.0270
     68 H32        50.4860   15.6255   -1.0982 H           1 MOL       0.0270
@<TRIPOS>BOND
     1    23    24   1
     2    24    27   1
     3    24    25   1
     4    25    26   2
     5    27    28   1
     6    28    29   1
     7    28    30   1
     8    31    32   1
     9    32    35   1
    10    32    33   1
    11    33    34  ar
    12    33    36  ar
    13    25    31  am
    14     1     2   2
    15     1     3   1
    16    11     1  am
    17     3     4   1
    18     4     5   1
    19     5     6  ar
    20     5     7  ar
    21     6     8  ar
    22     7     9  ar
    23     8    10  ar
    24     9    10  ar
    25    12    11   1
    26    13    12   1
    27    12    16   1
    28    13    14  ar
    29    13    15  ar
    30    13    23  am
    31    16    17   1
    32    17    18  ar
    33    17    19  ar
    34    18    20  ar
    35    19    21  ar
    36    20    22  ar
    37    21    22  ar
    38     4    37   1
    39     4    38   1
    40     6    39   1
    41     7    40   1
    42     8    41   1
    43     9    42   1
    44    10    43   1
    45    11    44   1
    46    12    45   1
    47    16    46   1
    48    16    47   1
    49    18    48   1
    50    19    49   1
    51    20    50   1
    52    21    51   1
    53    22    52   1
    54    23    53   1
    55    24    54   1
    56    27    55   1
    57    27    56   1
    58    28    57   1
    59    29    58   1
    60    29    59   1
    61    29    60   1
    62    30    61   1
    63    30    62   1
    64    30    63   1
    65    31    64   1
    66    32    65   1
    67    35    66   1
    68    35    67   1
    69    35    68   1
@<TRIPOS>SUBSTRUCTURE
     1  MOL      1

