@<TRIPOS>MOLECULE
4tmn_ligand_049
    68    69
SMALL
GAST_HUCK
****
This file was generated by PARSER (from files_GN.cpp)

@<TRIPOS>ATOM
      1 C          51.8121   15.5160   -6.1760 C.2         1 MOL       0.3232
      2 O          50.7857   15.4764   -7.0634 O.2         1 MOL      -0.3774
      3 OA         52.4168   14.3723   -5.7478 O.3         1 MOL      -0.2506
      4 CB         52.0865   13.0078   -6.0564 C.3         1 MOL       0.1113
      5 CG         51.9991   12.2361   -4.7896 C.ar        1 MOL      -0.0130
      6 CD1        50.7560   11.7937   -4.2772 C.ar        1 MOL      -0.0578
      7 CD2        53.1753   11.9568   -4.0508 C.ar        1 MOL      -0.0578
      8 CE1        50.6918   11.0871   -3.0622 C.ar        1 MOL      -0.0685
      9 CE2        53.1105   11.2440   -2.8389 C.ar        1 MOL      -0.0685
     10 CZ         51.8682   10.8104   -2.3445 C.ar        1 MOL      -0.0687
     11 N          52.3287   16.6728   -5.7093 N.am        1 MOL      -0.2403
     12 CA         51.9841   17.9954   -6.1421 C.3         1 MOL       0.1331
     13 P          53.1782   19.0475   -5.6182 P.3         1 MOL       0.0925
     14 OP1        54.4940   18.5963   -5.9973 O.co2       1 MOL      -0.6054
     15 OP2        52.9904   20.2742   -6.3539 O.co2       1 MOL      -0.6054
     16 CB         50.5685   18.4662   -5.6652 C.3         1 MOL       0.0219
     17 CG         49.4246   18.1287   -6.5536 C.ar        1 MOL      -0.0392
     18 CD1        49.4361   18.5159   -7.9151 C.ar        1 MOL      -0.0602
     19 CD2        48.2585   17.5104   -6.0395 C.ar        1 MOL      -0.0602
     20 CE1        48.3261   18.2722   -8.7452 C.ar        1 MOL      -0.0686
     21 CE2        47.1450   17.2711   -6.8665 C.ar        1 MOL      -0.0686
     22 CZ         47.1796   17.6473   -8.2210 C.ar        1 MOL      -0.0687
     23 N          53.0802   19.4639   -4.1597 N.am        1 MOL      -0.2733
     24 CA         53.9568   19.1395   -3.1118 C.3         1 MOL       0.1230
     25 C          53.7735   17.7410   -2.7338 C.2         1 MOL       0.1994
     26 O          54.7082   16.9617   -2.8730 O.2         1 MOL      -0.3949
     27 CB         53.6966   20.1182   -1.9150 C.3         1 MOL      -0.0136
     28 CG         54.6525   20.1106   -0.6742 C.3         1 MOL      -0.0429
     29 CD1        55.3166   18.7416   -0.3626 C.3         1 MOL      -0.0625
     30 CD2        55.7192   21.2368   -0.7175 C.3         1 MOL      -0.0625
     31 N          52.5972   17.3452   -2.2517 N.am        1 MOL      -0.2701
     32 CA         52.2239   16.0810   -1.6750 C.3         1 MOL       0.0916
     33 C          52.8372   15.9121   -0.3410 C.2         1 MOL       0.0598
     34 O          52.6400   16.8770    0.5834 O.co2       1 MOL      -0.5666
     35 CB         52.4436   14.8750   -2.6259 C.3         1 MOL      -0.0300
     36 OXT        53.3729   14.7379    0.0610 O.co2       1 MOL      -0.5666
     37 H1         52.8802   12.5855   -6.6858 H           1 MOL       0.0776
     38 H2         51.1486   12.9495   -6.6239 H           1 MOL       0.0776
     39 H3         49.8894   11.9958   -4.7814 H           1 MOL       0.0557
     40 H4         54.0861   12.2723   -4.3921 H           1 MOL       0.0557
     41 H5         49.7880   10.7809   -2.6976 H           1 MOL       0.0599
     42 H6         53.9644   11.0518   -2.3134 H           1 MOL       0.0599
     43 H7         51.8203   10.2987   -1.4617 H           1 MOL       0.0559
     44 H8         53.0805   16.5831   -5.1014 H           1 MOL       0.1888
     45 H9         52.0375   18.0136   -7.2349 H           1 MOL       0.0803
     46 H10        50.5296   19.5568   -5.5691 H           1 MOL       0.0465
     47 H11        50.4099   18.0604   -4.6626 H           1 MOL       0.0465
     48 H12        50.2493   18.9965   -8.3085 H           1 MOL       0.0557
     49 H13        48.1983   17.2493   -5.0528 H           1 MOL       0.0557
     50 H14        48.3492   18.5610   -9.7276 H           1 MOL       0.0599
     51 H15        46.3024   16.8324   -6.4817 H           1 MOL       0.0599
     52 H16        46.3689   17.4797   -8.8226 H           1 MOL       0.0559
     53 H17        52.3250   19.9724   -3.9307 H           1 MOL       0.1669
     54 H18        54.9795   19.3170   -3.4448 H           1 MOL       0.0753
     55 H19        52.6806   19.9597   -1.5448 H           1 MOL       0.0311
     56 H20        53.7058   21.1390   -2.3052 H           1 MOL       0.0311
     57 H21        54.0163   20.3386    0.1924 H           1 MOL       0.0298
     58 H22        55.7626   18.7571    0.6415 H           1 MOL       0.0232
     59 H23        56.1056   18.5179   -1.0922 H           1 MOL       0.0232
     60 H24        54.5736   17.9499   -0.3858 H           1 MOL       0.0232
     61 H25        55.2294   22.2069   -0.7935 H           1 MOL       0.0232
     62 H26        56.3897   21.1085   -1.5684 H           1 MOL       0.0232
     63 H27        56.3103   21.2334    0.1999 H           1 MOL       0.0232
     64 H28        51.9094   18.0336   -2.2133 H           1 MOL       0.1875
     65 H29        51.1445   16.1325   -1.5042 H           1 MOL       0.0723
     66 H30        52.1228   13.9541   -2.1322 H           1 MOL       0.0270
     67 H31        53.4951   14.7679   -2.9079 H           1 MOL       0.0270
     68 H32        51.8407   15.0005   -3.5265 H           1 MOL       0.0270
@<TRIPOS>BOND
     1    23    24   1
     2    24    27   1
     3    24    25   1
     4    25    26   2
     5    27    28   1
     6    28    29   1
     7    28    30   1
     8    31    32   1
     9    32    35   1
    10    32    33   1
    11    33    34  ar
    12    33    36  ar
    13    25    31  am
    14     1     2   2
    15     1     3   1
    16    11     1  am
    17     3     4   1
    18     4     5   1
    19     5     6  ar
    20     5     7  ar
    21     6     8  ar
    22     7     9  ar
    23     8    10  ar
    24     9    10  ar
    25    12    11   1
    26    13    12   1
    27    12    16   1
    28    13    14  ar
    29    13    15  ar
    30    13    23  am
    31    16    17   1
    32    17    18  ar
    33    17    19  ar
    34    18    20  ar
    35    19    21  ar
    36    20    22  ar
    37    21    22  ar
    38     4    37   1
    39     4    38   1
    40     6    39   1
    41     7    40   1
    42     8    41   1
    43     9    42   1
    44    10    43   1
    45    11    44   1
    46    12    45   1
    47    16    46   1
    48    16    47   1
    49    18    48   1
    50    19    49   1
    51    20    50   1
    52    21    51   1
    53    22    52   1
    54    23    53   1
    55    24    54   1
    56    27    55   1
    57    27    56   1
    58    28    57   1
    59    29    58   1
    60    29    59   1
    61    29    60   1
    62    30    61   1
    63    30    62   1
    64    30    63   1
    65    31    64   1
    66    32    65   1
    67    35    66   1
    68    35    67   1
    69    35    68   1
@<TRIPOS>SUBSTRUCTURE
     1  MOL      1

