@<TRIPOS>MOLECULE
4tmn_ligand_017
    68    69
SMALL
GAST_HUCK
****
This file was generated by PARSER (from files_GN.cpp)

@<TRIPOS>ATOM
      1 C          50.2979   16.8238   -8.7935 C.2         1 MOL       0.3232
      2 O          49.0171   16.6135   -8.4142 O.2         1 MOL      -0.3774
      3 OA         50.9950   15.8656   -9.4657 O.3         1 MOL      -0.2506
      4 CB         50.4906   14.6250   -9.9817 C.3         1 MOL       0.1113
      5 CG         49.6704   13.8652   -9.0043 C.ar        1 MOL      -0.0130
      6 CD1        50.2512   13.3696   -7.8149 C.ar        1 MOL      -0.0578
      7 CD2        48.2808   13.6914   -9.2094 C.ar        1 MOL      -0.0578
      8 CE1        49.4577   12.7272   -6.8438 C.ar        1 MOL      -0.0685
      9 CE2        47.4848   13.0588   -8.2360 C.ar        1 MOL      -0.0685
     10 CZ         48.0745   12.5733   -7.0545 C.ar        1 MOL      -0.0687
     11 N          50.9260   17.9890   -8.5256 N.am        1 MOL      -0.2403
     12 CA         50.3211   19.1059   -7.8563 C.3         1 MOL       0.1331
     13 P          51.1430   20.5059   -8.2693 P.3         1 MOL       0.0925
     14 OP1        50.3705   21.6462   -7.8397 O.co2       1 MOL      -0.6054
     15 OP2        52.4213   20.5419   -7.6026 O.co2       1 MOL      -0.6054
     16 CB         50.1796   18.8700   -6.3114 C.3         1 MOL       0.0219
     17 CG         51.3696   18.2801   -5.6305 C.ar        1 MOL      -0.0392
     18 CD1        51.5048   16.8772   -5.4876 C.ar        1 MOL      -0.0602
     19 CD2        52.4014   19.1096   -5.1297 C.ar        1 MOL      -0.0602
     20 CE1        52.6618   16.3204   -4.9069 C.ar        1 MOL      -0.0686
     21 CE2        53.5666   18.5555   -4.5653 C.ar        1 MOL      -0.0686
     22 CZ         53.7010   17.1587   -4.4653 C.ar        1 MOL      -0.0687
     23 N          51.4559   20.5800   -9.7537 N.am        1 MOL      -0.2733
     24 CA         50.8078   21.3692  -10.7210 C.3         1 MOL       0.1230
     25 C          49.7062   20.5734  -11.2657 C.2         1 MOL       0.1994
     26 O          49.9660   19.5523  -11.8953 O.2         1 MOL      -0.3949
     27 CB         51.8416   21.8285  -11.8128 C.3         1 MOL      -0.0136
     28 CG         51.5067   23.1020  -12.6625 C.3         1 MOL      -0.0429
     29 CD1        50.1169   23.0568  -13.3570 C.3         1 MOL      -0.0625
     30 CD2        51.6746   24.4155  -11.8474 C.3         1 MOL      -0.0625
     31 N          48.4429   20.9113  -11.0262 N.am        1 MOL      -0.2701
     32 CA         47.2606   20.2402  -11.5030 C.3         1 MOL       0.0916
     33 C          46.0836   21.0462  -11.1219 C.2         1 MOL       0.0598
     34 O          45.2661   21.5504  -12.0727 O.co2       1 MOL      -0.5666
     35 CB         47.0366   18.7970  -10.9693 C.3         1 MOL      -0.0300
     36 OXT        45.6337   21.0299   -9.8409 O.co2       1 MOL      -0.5666
     37 H1         51.3364   14.0118  -10.2964 H           1 MOL       0.0776
     38 H2         49.9127   14.8660  -10.8768 H           1 MOL       0.0776
     39 H3         51.2495   13.4939   -7.6363 H           1 MOL       0.0557
     40 H4         47.8281   14.0578  -10.0490 H           1 MOL       0.0557
     41 H5         49.8826   12.3749   -5.9826 H           1 MOL       0.0599
     42 H6         46.4764   12.9611   -8.3829 H           1 MOL       0.0599
     43 H7         47.4942   12.1170   -6.3436 H           1 MOL       0.0559
     44 H8         51.8390   18.0871   -8.8421 H           1 MOL       0.1888
     45 H9         49.3133   19.2412   -8.2622 H           1 MOL       0.0803
     46 H10        49.3222   18.2168   -6.1365 H           1 MOL       0.0465
     47 H11        49.9184   19.8165   -5.8320 H           1 MOL       0.0465
     48 H12        50.7637   16.2479   -5.8031 H           1 MOL       0.0557
     49 H13        52.3332   20.1268   -5.2037 H           1 MOL       0.0557
     50 H14        52.7519   15.3069   -4.8156 H           1 MOL       0.0599
     51 H15        54.3186   19.1686   -4.2413 H           1 MOL       0.0599
     52 H16        54.5493   16.7548   -4.0629 H           1 MOL       0.0559
     53 H17        51.9873   19.8891  -10.0854 H           1 MOL       0.1669
     54 H18        50.4060   22.2803  -10.2602 H           1 MOL       0.0753
     55 H19        52.0422   21.0031  -12.5085 H           1 MOL       0.0311
     56 H20        52.8001   22.0183  -11.3259 H           1 MOL       0.0311
     57 H21        52.2527   23.1474  -13.4631 H           1 MOL       0.0298
     58 H22        50.0238   23.8709  -14.0758 H           1 MOL       0.0232
     59 H23        49.3114   23.1467  -12.6251 H           1 MOL       0.0232
     60 H24        49.9966   22.1175  -13.8964 H           1 MOL       0.0232
     61 H25        52.6958   24.4976  -11.4699 H           1 MOL       0.0232
     62 H26        50.9879   24.4323  -11.0015 H           1 MOL       0.0232
     63 H27        51.4828   25.2864  -12.4749 H           1 MOL       0.0232
     64 H28        48.3044   21.7317  -10.5214 H           1 MOL       0.1875
     65 H29        47.3183   20.1926  -12.5976 H           1 MOL       0.0723
     66 H30        46.1250   18.3738  -11.4014 H           1 MOL       0.0270
     67 H31        46.9247   18.8079   -9.8865 H           1 MOL       0.0270
     68 H32        47.8615   18.1335  -11.2259 H           1 MOL       0.0270
@<TRIPOS>BOND
     1    23    24   1
     2    24    27   1
     3    24    25   1
     4    25    26   2
     5    27    28   1
     6    28    29   1
     7    28    30   1
     8    31    32   1
     9    32    35   1
    10    32    33   1
    11    33    34  ar
    12    33    36  ar
    13    25    31  am
    14     1     2   2
    15     1     3   1
    16    11     1  am
    17     3     4   1
    18     4     5   1
    19     5     6  ar
    20     5     7  ar
    21     6     8  ar
    22     7     9  ar
    23     8    10  ar
    24     9    10  ar
    25    12    11   1
    26    13    12   1
    27    12    16   1
    28    13    14  ar
    29    13    15  ar
    30    13    23  am
    31    16    17   1
    32    17    18  ar
    33    17    19  ar
    34    18    20  ar
    35    19    21  ar
    36    20    22  ar
    37    21    22  ar
    38     4    37   1
    39     4    38   1
    40     6    39   1
    41     7    40   1
    42     8    41   1
    43     9    42   1
    44    10    43   1
    45    11    44   1
    46    12    45   1
    47    16    46   1
    48    16    47   1
    49    18    48   1
    50    19    49   1
    51    20    50   1
    52    21    51   1
    53    22    52   1
    54    23    53   1
    55    24    54   1
    56    27    55   1
    57    27    56   1
    58    28    57   1
    59    29    58   1
    60    29    59   1
    61    29    60   1
    62    30    61   1
    63    30    62   1
    64    30    63   1
    65    31    64   1
    66    32    65   1
    67    35    66   1
    68    35    67   1
    69    35    68   1
@<TRIPOS>SUBSTRUCTURE
     1  MOL      1

