@<TRIPOS>MOLECULE
4tmn_ligand_000
    68    69
SMALL
GAST_HUCK
****
This file was generated by PARSER (from files_GN.cpp)

@<TRIPOS>ATOM
      1 C          48.5270   17.8085   -7.3689 C.2         1 MOL       0.3232
      2 O          48.7814   17.3204   -8.6072 O.2         1 MOL      -0.3774
      3 OA         47.2799   17.7232   -6.8383 O.3         1 MOL      -0.2506
      4 CB         46.1304   17.1106   -7.4413 C.3         1 MOL       0.1113
      5 CG         45.3962   18.0244   -8.3579 C.ar        1 MOL      -0.0130
      6 CD1        44.0023   17.8646   -8.5436 C.ar        1 MOL      -0.0578
      7 CD2        46.0667   19.0159   -9.1189 C.ar        1 MOL      -0.0578
      8 CE1        43.2986   18.6774   -9.4510 C.ar        1 MOL      -0.0685
      9 CE2        45.3607   19.8380  -10.0153 C.ar        1 MOL      -0.0685
     10 CZ         43.9758   19.6672  -10.1838 C.ar        1 MOL      -0.0687
     11 N          49.4609   18.4818   -6.6605 N.am        1 MOL      -0.2403
     12 CA         50.7411   18.9169   -7.1385 C.3         1 MOL       0.1331
     13 P          51.9263   18.4505   -6.0528 P.3         1 MOL       0.0925
     14 OP1        52.1289   17.0485   -6.3079 O.co2       1 MOL      -0.6054
     15 OP2        53.1635   19.1128   -6.3909 O.co2       1 MOL      -0.6054
     16 CB         50.6768   20.4498   -7.4819 C.3         1 MOL       0.0219
     17 CG         50.7524   20.8862   -8.9180 C.ar        1 MOL      -0.0392
     18 CD1        50.6679   22.2751   -9.1849 C.ar        1 MOL      -0.0602
     19 CD2        50.9976   20.0240  -10.0170 C.ar        1 MOL      -0.0602
     20 CE1        50.8595   22.7885  -10.4810 C.ar        1 MOL      -0.0686
     21 CE2        51.1861   20.5328  -11.3191 C.ar        1 MOL      -0.0686
     22 CZ         51.1283   21.9154  -11.5487 C.ar        1 MOL      -0.0687
     23 N          51.6476   18.5840   -4.5641 N.am        1 MOL      -0.2733
     24 CA         52.6038   18.4841   -3.5228 C.3         1 MOL       0.1230
     25 C          53.3461   17.2145   -3.5354 C.2         1 MOL       0.1994
     26 O          54.5720   17.2444   -3.5335 O.2         1 MOL      -0.3949
     27 CB         51.9067   18.7348   -2.1403 C.3         1 MOL      -0.0136
     28 CG         52.7906   19.1583   -0.9168 C.3         1 MOL      -0.0429
     29 CD1        53.7700   18.0579   -0.4272 C.3         1 MOL      -0.0625
     30 CD2        53.5313   20.5098   -1.1234 C.3         1 MOL      -0.0625
     31 N          52.6904   16.0632   -3.6507 N.am        1 MOL      -0.2701
     32 CA         53.2449   14.7439   -3.7800 C.3         1 MOL       0.0916
     33 C          52.9564   14.2056   -5.1262 C.2         1 MOL       0.0598
     34 O          51.7046   14.2213   -5.6386 O.co2       1 MOL      -0.5666
     35 CB         52.6481   13.8251   -2.6890 C.3         1 MOL      -0.0300
     36 OXT        53.9152   13.5512   -5.8179 O.co2       1 MOL      -0.5666
     37 H1         45.4854   16.7865   -6.6216 H           1 MOL       0.0776
     38 H2         46.4142   16.2139   -7.9972 H           1 MOL       0.0776
     39 H3         43.4912   17.1423   -8.0289 H           1 MOL       0.0557
     40 H4         47.0745   19.1561   -9.0296 H           1 MOL       0.0557
     41 H5         42.2931   18.5441   -9.5812 H           1 MOL       0.0599
     42 H6         45.8571   20.5552  -10.5507 H           1 MOL       0.0599
     43 H7         43.4646   20.2570  -10.8439 H           1 MOL       0.0559
     44 H8         49.2026   18.7795   -5.7727 H           1 MOL       0.1888
     45 H9         51.0057   18.3800   -8.0588 H           1 MOL       0.0803
     46 H10        51.4972   20.9732   -6.9855 H           1 MOL       0.0465
     47 H11        49.7625   20.8670   -7.0506 H           1 MOL       0.0465
     48 H12        50.4924   22.9377   -8.4240 H           1 MOL       0.0557
     49 H13        51.0775   19.0145   -9.8805 H           1 MOL       0.0557
     50 H14        50.8065   23.7979  -10.6455 H           1 MOL       0.0599
     51 H15        51.3800   19.8939  -12.0947 H           1 MOL       0.0599
     52 H16        51.2822   22.2829  -12.4884 H           1 MOL       0.0559
     53 H17        50.7467   18.6435   -4.3166 H           1 MOL       0.1669
     54 H18        53.3051   19.3099   -3.6776 H           1 MOL       0.0753
     55 H19        51.3393   17.8417   -1.8616 H           1 MOL       0.0311
     56 H20        51.1617   19.5251   -2.2705 H           1 MOL       0.0311
     57 H21        52.0905   19.3235   -0.0887 H           1 MOL       0.0298
     58 H22        54.1338   18.2980    0.5746 H           1 MOL       0.0232
     59 H23        54.6336   17.9800   -1.0875 H           1 MOL       0.0232
     60 H24        53.2706   17.0884   -0.3824 H           1 MOL       0.0232
     61 H25        52.8283   21.2920   -1.4131 H           1 MOL       0.0232
     62 H26        54.2988   20.4270   -1.8942 H           1 MOL       0.0232
     63 H27        54.0152   20.8228   -0.1959 H           1 MOL       0.0232
     64 H28        51.7236   16.1244   -3.6951 H           1 MOL       0.1875
     65 H29        54.3307   14.7563   -3.6401 H           1 MOL       0.0723
     66 H30        53.0478   12.8131   -2.7851 H           1 MOL       0.0270
     67 H31        51.5590   13.7809   -2.7722 H           1 MOL       0.0270
     68 H32        52.9073   14.2041   -1.6989 H           1 MOL       0.0270
@<TRIPOS>BOND
     1    23    24   1
     2    24    27   1
     3    24    25   1
     4    25    26   2
     5    27    28   1
     6    28    29   1
     7    28    30   1
     8    31    32   1
     9    32    35   1
    10    32    33   1
    11    33    34  ar
    12    33    36  ar
    13    25    31  am
    14     1     2   2
    15     1     3   1
    16    11     1  am
    17     3     4   1
    18     4     5   1
    19     5     6  ar
    20     5     7  ar
    21     6     8  ar
    22     7     9  ar
    23     8    10  ar
    24     9    10  ar
    25    12    11   1
    26    13    12   1
    27    12    16   1
    28    13    14  ar
    29    13    15  ar
    30    13    23  am
    31    16    17   1
    32    17    18  ar
    33    17    19  ar
    34    18    20  ar
    35    19    21  ar
    36    20    22  ar
    37    21    22  ar
    38     4    37   1
    39     4    38   1
    40     6    39   1
    41     7    40   1
    42     8    41   1
    43     9    42   1
    44    10    43   1
    45    11    44   1
    46    12    45   1
    47    16    46   1
    48    16    47   1
    49    18    48   1
    50    19    49   1
    51    20    50   1
    52    21    51   1
    53    22    52   1
    54    23    53   1
    55    24    54   1
    56    27    55   1
    57    27    56   1
    58    28    57   1
    59    29    58   1
    60    29    59   1
    61    29    60   1
    62    30    61   1
    63    30    62   1
    64    30    63   1
    65    31    64   1
    66    32    65   1
    67    35    66   1
    68    35    67   1
    69    35    68   1
@<TRIPOS>SUBSTRUCTURE
     1  MOL      1

