@<TRIPOS>MOLECULE
4tmn_ligand_060
    68    69
SMALL
GAST_HUCK
****
This file was generated by PARSER (from files_GN.cpp)

@<TRIPOS>ATOM
      1 C          52.3054   17.7686   -4.2546 C.2         1 MOL       0.3232
      2 O          52.5000   16.4491   -4.4870 O.2         1 MOL      -0.3774
      3 OA         52.9177   18.3751   -3.2032 O.3         1 MOL      -0.2506
      4 CB         53.7487   17.7175   -2.2378 C.3         1 MOL       0.1113
      5 CG         54.4787   18.6521   -1.3451 C.ar        1 MOL      -0.0130
      6 CD1        55.1130   19.8223   -1.8345 C.ar        1 MOL      -0.0578
      7 CD2        54.5992   18.3473    0.0312 C.ar        1 MOL      -0.0578
      8 CE1        55.8309   20.6648   -0.9682 C.ar        1 MOL      -0.0685
      9 CE2        55.3259   19.1848    0.8967 C.ar        1 MOL      -0.0685
     10 CZ         55.9380   20.3486    0.3971 C.ar        1 MOL      -0.0687
     11 N          51.5617   18.5325   -5.0934 N.am        1 MOL      -0.2403
     12 CA         51.0021   18.0506   -6.3273 C.3         1 MOL       0.1331
     13 P          51.3861   19.0565   -7.6122 P.3         1 MOL       0.0925
     14 OP1        52.7332   19.5338   -7.4200 O.co2       1 MOL      -0.6054
     15 OP2        51.4176   18.2472   -8.8061 O.co2       1 MOL      -0.6054
     16 CB         49.4743   17.7523   -6.1459 C.3         1 MOL       0.0219
     17 CG         48.8906   16.7398   -7.0672 C.ar        1 MOL      -0.0392
     18 CD1        47.6525   16.9755   -7.7122 C.ar        1 MOL      -0.0602
     19 CD2        49.5053   15.4752   -7.2373 C.ar        1 MOL      -0.0602
     20 CE1        47.0579   15.9849   -8.5149 C.ar        1 MOL      -0.0686
     21 CE2        48.9219   14.4906   -8.0551 C.ar        1 MOL      -0.0686
     22 CZ         47.6960   14.7472   -8.6960 C.ar        1 MOL      -0.0687
     23 N          50.5303   20.3027   -7.8039 N.am        1 MOL      -0.2733
     24 CA         50.0629   20.8368   -9.0253 C.3         1 MOL       0.1230
     25 C          48.9948   19.9906   -9.5729 C.2         1 MOL       0.1994
     26 O          47.8771   20.0752   -9.0728 O.2         1 MOL      -0.3949
     27 CB         51.1903   21.2290  -10.0492 C.3         1 MOL      -0.0136
     28 CG         50.6855   21.9494  -11.3517 C.3         1 MOL      -0.0429
     29 CD1        50.7329   23.4974  -11.2254 C.3         1 MOL      -0.0625
     30 CD2        51.4373   21.4655  -12.6252 C.3         1 MOL      -0.0625
     31 N          49.2445   19.1248  -10.5479 N.am        1 MOL      -0.2701
     32 CA         48.3156   18.2315  -11.1751 C.3         1 MOL       0.0916
     33 C          49.0819   17.1083  -11.7626 C.2         1 MOL       0.0598
     34 O          49.5212   17.1323  -13.0387 O.co2       1 MOL      -0.5666
     35 CB         47.4252   18.9468  -12.2234 C.3         1 MOL      -0.0300
     36 OXT        49.6290   16.1873  -10.9344 O.co2       1 MOL      -0.5666
     37 H1         54.4858   17.1052   -2.7597 H           1 MOL       0.0776
     38 H2         53.1068   17.0615   -1.6468 H           1 MOL       0.0776
     39 H3         55.0685   20.0631   -2.8259 H           1 MOL       0.0557
     40 H4         54.1544   17.5103    0.4152 H           1 MOL       0.0557
     41 H5         56.2819   21.5054   -1.3307 H           1 MOL       0.0599
     42 H6         55.4084   18.9515    1.8884 H           1 MOL       0.0599
     43 H7         56.4634   20.9602    1.0263 H           1 MOL       0.0559
     44 H8         51.4925   19.4810   -4.8941 H           1 MOL       0.1888
     45 H9         51.5246   17.1166   -6.5563 H           1 MOL       0.0803
     46 H10        48.9229   18.6959   -6.2014 H           1 MOL       0.0465
     47 H11        49.3012   17.3640   -5.1370 H           1 MOL       0.0465
     48 H12        47.1655   17.8648   -7.5866 H           1 MOL       0.0557
     49 H13        50.3810   15.2548   -6.7569 H           1 MOL       0.0557
     50 H14        46.1600   16.1661   -8.9677 H           1 MOL       0.0599
     51 H15        49.3828   13.5865   -8.1783 H           1 MOL       0.0599
     52 H16        47.2653   14.0293   -9.2809 H           1 MOL       0.0559
     53 H17        50.4693   20.8654   -7.0557 H           1 MOL       0.1669
     54 H18        49.6055   21.7935   -8.7639 H           1 MOL       0.0753
     55 H19        51.7352   20.3206  -10.3236 H           1 MOL       0.0311
     56 H20        51.9209   21.8594   -9.5369 H           1 MOL       0.0311
     57 H21        49.6345   21.6974  -11.5242 H           1 MOL       0.0298
     58 H22        50.2754   23.9664  -12.1002 H           1 MOL       0.0232
     59 H23        51.7643   23.8484  -11.1381 H           1 MOL       0.0232
     60 H24        50.1780   23.8165  -10.3397 H           1 MOL       0.0232
     61 H25        51.3199   20.3849  -12.7429 H           1 MOL       0.0232
     62 H26        52.5030   21.6934  -12.5583 H           1 MOL       0.0232
     63 H27        51.0284   21.9438  -13.5160 H           1 MOL       0.0232
     64 H28        50.1633   19.0654  -10.8514 H           1 MOL       0.1875
     65 H29        47.6608   17.8059  -10.4133 H           1 MOL       0.0723
     66 H30        46.7825   18.2202  -12.7249 H           1 MOL       0.0270
     67 H31        48.0421   19.4473  -12.9712 H           1 MOL       0.0270
     68 H32        46.7869   19.6903  -11.7415 H           1 MOL       0.0270
@<TRIPOS>BOND
     1    23    24   1
     2    24    27   1
     3    24    25   1
     4    25    26   2
     5    27    28   1
     6    28    29   1
     7    28    30   1
     8    31    32   1
     9    32    35   1
    10    32    33   1
    11    33    34  ar
    12    33    36  ar
    13    25    31  am
    14     1     2   2
    15     1     3   1
    16    11     1  am
    17     3     4   1
    18     4     5   1
    19     5     6  ar
    20     5     7  ar
    21     6     8  ar
    22     7     9  ar
    23     8    10  ar
    24     9    10  ar
    25    12    11   1
    26    13    12   1
    27    12    16   1
    28    13    14  ar
    29    13    15  ar
    30    13    23  am
    31    16    17   1
    32    17    18  ar
    33    17    19  ar
    34    18    20  ar
    35    19    21  ar
    36    20    22  ar
    37    21    22  ar
    38     4    37   1
    39     4    38   1
    40     6    39   1
    41     7    40   1
    42     8    41   1
    43     9    42   1
    44    10    43   1
    45    11    44   1
    46    12    45   1
    47    16    46   1
    48    16    47   1
    49    18    48   1
    50    19    49   1
    51    20    50   1
    52    21    51   1
    53    22    52   1
    54    23    53   1
    55    24    54   1
    56    27    55   1
    57    27    56   1
    58    28    57   1
    59    29    58   1
    60    29    59   1
    61    29    60   1
    62    30    61   1
    63    30    62   1
    64    30    63   1
    65    31    64   1
    66    32    65   1
    67    35    66   1
    68    35    67   1
    69    35    68   1
@<TRIPOS>SUBSTRUCTURE
     1  MOL      1

