@<TRIPOS>MOLECULE
4tmn_ligand_044
    68    69
SMALL
GAST_HUCK
****
This file was generated by PARSER (from files_GN.cpp)

@<TRIPOS>ATOM
      1 C          51.1760   20.5151   -7.6981 C.2         1 MOL       0.3232
      2 O          49.9917   20.8093   -7.1050 O.2         1 MOL      -0.3774
      3 OA         52.2410   20.0824   -6.9654 O.3         1 MOL      -0.2506
      4 CB         52.2353   19.7495   -5.5692 C.3         1 MOL       0.1113
      5 CG         52.4291   18.2895   -5.3765 C.ar        1 MOL      -0.0130
      6 CD1        53.4011   17.7952   -4.4743 C.ar        1 MOL      -0.0578
      7 CD2        51.6030   17.3607   -6.0565 C.ar        1 MOL      -0.0578
      8 CE1        53.5382   16.4121   -4.2552 C.ar        1 MOL      -0.0685
      9 CE2        51.7581   15.9752   -5.8535 C.ar        1 MOL      -0.0685
     10 CZ         52.7228   15.5019   -4.9468 C.ar        1 MOL      -0.0687
     11 N          51.3031   20.5706   -9.0439 N.am        1 MOL      -0.2403
     12 CA         50.2253   20.7917   -9.9773 C.3         1 MOL       0.1331
     13 P          49.0382   19.5981   -9.8908 P.3         1 MOL       0.0925
     14 OP1        49.4189   18.4715  -10.7073 O.co2       1 MOL      -0.6054
     15 OP2        48.8901   19.0329   -8.5691 O.co2       1 MOL      -0.6054
     16 CB         50.7995   20.9139  -11.4338 C.3         1 MOL       0.0219
     17 CG         51.2003   22.3026  -11.7843 C.ar        1 MOL      -0.0392
     18 CD1        50.2108   23.2456  -12.1529 C.ar        1 MOL      -0.0602
     19 CD2        52.5559   22.7063  -11.7709 C.ar        1 MOL      -0.0602
     20 CE1        50.5691   24.5528  -12.5252 C.ar        1 MOL      -0.0686
     21 CE2        52.9096   24.0243  -12.1163 C.ar        1 MOL      -0.0686
     22 CZ         51.9192   24.9430  -12.5022 C.ar        1 MOL      -0.0687
     23 N          47.6984   20.1988  -10.2859 N.am        1 MOL      -0.2733
     24 CA         46.6340   19.6383  -11.0227 C.3         1 MOL       0.1230
     25 C          45.8976   18.6191  -10.2726 C.2         1 MOL       0.1994
     26 O          46.4156   17.5267  -10.0731 O.2         1 MOL      -0.3949
     27 CB         47.0626   19.2500  -12.4800 C.3         1 MOL      -0.0136
     28 CG         46.0928   18.3779  -13.3484 C.3         1 MOL      -0.0429
     29 CD1        44.6142   18.8511  -13.3037 C.3         1 MOL      -0.0625
     30 CD2        46.5840   18.3225  -14.8262 C.3         1 MOL      -0.0625
     31 N          44.6636   18.8879   -9.8469 N.am        1 MOL      -0.2701
     32 CA         43.7273   18.0481   -9.1569 C.3         1 MOL       0.0916
     33 C          44.2507   17.4848   -7.8959 C.2         1 MOL       0.0598
     34 O          45.5524   17.5817   -7.5526 O.co2       1 MOL      -0.5666
     35 CB         43.0940   16.9581  -10.0589 C.3         1 MOL      -0.0300
     36 OXT        43.3999   16.8932   -7.0256 O.co2       1 MOL      -0.5666
     37 H1         51.2922   20.0212   -5.0943 H           1 MOL       0.0776
     38 H2         53.0246   20.3288   -5.0877 H           1 MOL       0.0776
     39 H3         54.0012   18.4436   -3.9547 H           1 MOL       0.0557
     40 H4         50.8867   17.6861   -6.7111 H           1 MOL       0.0557
     41 H5         54.2246   16.0711   -3.5801 H           1 MOL       0.0599
     42 H6         51.1643   15.3158   -6.3595 H           1 MOL       0.0599
     43 H7         52.8237   14.4993   -4.7878 H           1 MOL       0.0559
     44 H8         52.1763   20.3559   -9.4106 H           1 MOL       0.1888
     45 H9         49.7426   21.7406   -9.7145 H           1 MOL       0.0803
     46 H10        50.0702   20.6021  -12.1903 H           1 MOL       0.0465
     47 H11        51.6484   20.2345  -11.5558 H           1 MOL       0.0465
     48 H12        49.2218   22.9795  -12.1669 H           1 MOL       0.0557
     49 H13        53.2905   22.0461  -11.5055 H           1 MOL       0.0557
     50 H14        49.8484   25.2141  -12.8175 H           1 MOL       0.0599
     51 H15        53.8889   24.3136  -12.0975 H           1 MOL       0.0599
     52 H16        52.1837   25.8900  -12.7733 H           1 MOL       0.0559
     53 H17        47.5322   21.0484   -9.9237 H           1 MOL       0.1669
     54 H18        45.9525   20.4872  -11.1628 H           1 MOL       0.0753
     55 H19        48.0143   18.7206  -12.4244 H           1 MOL       0.0311
     56 H20        47.2575   20.1813  -13.0214 H           1 MOL       0.0311
     57 H21        46.1266   17.3550  -12.9621 H           1 MOL       0.0298
     58 H22        44.0001   18.2190  -13.9510 H           1 MOL       0.0232
     59 H23        44.5327   19.8901  -13.6364 H           1 MOL       0.0232
     60 H24        44.2120   18.7720  -12.2921 H           1 MOL       0.0232
     61 H25        47.6208   17.9759  -14.8764 H           1 MOL       0.0232
     62 H26        46.5241   19.3080  -15.2960 H           1 MOL       0.0232
     63 H27        45.9708   17.6282  -15.4044 H           1 MOL       0.0232
     64 H28        44.3351   19.7789  -10.0561 H           1 MOL       0.1875
     65 H29        42.9191   18.7266   -8.8723 H           1 MOL       0.0723
     66 H30        42.2554   16.4829   -9.5467 H           1 MOL       0.0270
     67 H31        43.8243   16.1850  -10.3095 H           1 MOL       0.0270
     68 H32        42.7246   17.4032  -10.9849 H           1 MOL       0.0270
@<TRIPOS>BOND
     1    23    24   1
     2    24    27   1
     3    24    25   1
     4    25    26   2
     5    27    28   1
     6    28    29   1
     7    28    30   1
     8    31    32   1
     9    32    35   1
    10    32    33   1
    11    33    34  ar
    12    33    36  ar
    13    25    31  am
    14     1     2   2
    15     1     3   1
    16    11     1  am
    17     3     4   1
    18     4     5   1
    19     5     6  ar
    20     5     7  ar
    21     6     8  ar
    22     7     9  ar
    23     8    10  ar
    24     9    10  ar
    25    12    11   1
    26    13    12   1
    27    12    16   1
    28    13    14  ar
    29    13    15  ar
    30    13    23  am
    31    16    17   1
    32    17    18  ar
    33    17    19  ar
    34    18    20  ar
    35    19    21  ar
    36    20    22  ar
    37    21    22  ar
    38     4    37   1
    39     4    38   1
    40     6    39   1
    41     7    40   1
    42     8    41   1
    43     9    42   1
    44    10    43   1
    45    11    44   1
    46    12    45   1
    47    16    46   1
    48    16    47   1
    49    18    48   1
    50    19    49   1
    51    20    50   1
    52    21    51   1
    53    22    52   1
    54    23    53   1
    55    24    54   1
    56    27    55   1
    57    27    56   1
    58    28    57   1
    59    29    58   1
    60    29    59   1
    61    29    60   1
    62    30    61   1
    63    30    62   1
    64    30    63   1
    65    31    64   1
    66    32    65   1
    67    35    66   1
    68    35    67   1
    69    35    68   1
@<TRIPOS>SUBSTRUCTURE
     1  MOL      1

